Mass spectrum: Azelaic acid; LC-ESI-ITFT; MS2; CE: 100;  [M-H]-
Name: Azelaic acid
Class: Lipids and lipid-like molecules; Fatty Acyls; Fatty acids and conjugates
Formula: C9H16O4
Exact mass: 188.10486
SMILES: OC(=O)CCCCCCCC(O)=O
InChI: InChI=1S/C9H16O4/c10-8(11)6-4-2-1-3-5-7-9(12)13/h1-7H2,(H,10,11)(H,12,13)
Instrument: Thermo Scientific Q-Exactive Focus
Instrument type: LC-ESI-ITFT
Ms type: MS2
Ion mode: NEGATIVE
Ionization: ESI
Collision energy: 100
Column name: Acquity CSHC18
Retention time: 2.581 min
Base peak: 187.09758
Precursor m/z: 187.09758
Precursor type: [M-H]-
m/z	relative intensity
58.7725	999
74.2466	822
102.9156	776
108.2862	780
109.9283	803
140.0342	817
147.0322	826
168.7373	876
174.9515	861
190.5605	807
