Mass spectrum: 15-ketocholestane; ESI-TOF; MS2; CE: 0.6458333;  [M+H]+
Name: 15-ketocholestane
Class: NA
Formula: C27H46O2
Exact mass: 402.34978
SMILES: [H]OC4([H])(C([H])([H])C([H])([H])C2(C([H])([H])[H])(C([H])(C([H])([H])C([H])([H])C1([H])(C3([H])(C(=O)C([H])([H])C([H])(C([H])(C([H])([H])[H])C([H])([H])C([H])([H])C([H])([H])C([H])(C([H])([H])[H])C([H])([H])[H])C3(C([H])([H])[H])(C([H])([H])C([H])([H])C12([H])))))C4([H])([H])))
InChI: InChI=1S/C27H46O2/c1-17(2)7-6-8-18(3)23-16-24(29)25-21-10-9-19-15-20(28)11-13-26(19,4)22(21)12-14-27(23,25)5/h17-23,25,28H,6-16H2,1-5H3
Instrument: waters xevo g2 TOF
Instrument type: ESI-TOF
Ms type: MS2
Ion mode: POSITIVE
Ionization: ESI
Collision energy: 0.6458333
Column name: Acquity CSHC18
Retention time: 8.947 min
Base peak: 403.35778
Precursor m/z: 403.35778
Precursor type: [M+H]+
m/z	relative intensity
69.0711	35
79.0568	20
81.0714	155
83.0868	93
91.0557	35
93.0713	117
95.0868	292
97.1029	91
105.0714	162
107.0866	283
109.1025	109
111.1182	49
117.0704	36
119.0866	166
121.1025	217
123.1182	135
131.0867	131
133.1023	238
134.1065	25
135.1183	217
137.1332	35
145.1024	288
147.1178	326
148.1098	41
149.133	92
151.1496	28
157.1022	46
159.118	304
160.1208	34
161.1334	278
162.1372	22
163.1136	65
165.1644	15
171.1182	62
173.1339	141
175.1491	97
177.1286	17
179.1809	42
185.1329	120
186.1375	16
187.1492	395
188.152	38
189.1649	106
190.1696	14
191.181	26
193.196	51
199.15	152
201.1652	298
202.1688	30
203.1801	54
205.1955	110
213.1656	172
214.1689	29
215.181	127
217.1955	72
219.1757	72
227.1806	193
229.1951	46
231.1762	71
233.2278	60
241.1965	205
242.199	39
245.1913	44
247.2449	27
255.2117	188
256.2136	21
259.2419	121
261.2555	14
271.2418	55
273.2577	191
274.261	32
283.2413	28
285.2581	45
297.2584	17
310.161	18
311.2735	16
313.2902	274
314.2938	71
325.2913	23
331.3003	172
332.3029	39
333.3078	5
355.2156	3
367.3367	999
368.3407	286
369.3458	36
385.3474	897
386.3503	280
387.3552	34
401.3432	4
403.3579	391
404.3611	121
