Mass spectrum: 15(S)-15-methyl Prostaglandin F2-alpha methyl ester; ESI-TOF; MS2; CE: 6.0000000;  [M+H]+
Name: 15(S)-15-methyl Prostaglandin F2-alpha methyl ester
Class: NA
Formula: C22H38O5
Exact mass: 382.27192
SMILES: CCCCCC(C)(C=CC1C(CC(C1CC=CCCCC(=O)OC)O)O)O
InChI: InChI=1S/C22H38O5/c1-4-5-10-14-22(2,26)15-13-18-17(19(23)16-20(18)24)11-8-6-7-9-12-21(25)27-3/h6,8,13,15,17-20,23-24,26H,4-5,7,9-12,14,16H2,1-3H3
Instrument: waters xevo g2 TOF
Instrument type: ESI-TOF
Ms type: MS2
Ion mode: POSITIVE
Ionization: ESI
Collision energy: 6.0000000
Column name: Acquity CSHC18
Retention time: 4.181 min
Base peak: 383.27992
Precursor m/z: 383.27992
Precursor type: [M+H]+
m/z	relative intensity
95.0866	6
129.071	2
149.0974	41
151.149	8
161.0973	5
174.0921	1
175.1134	9
180.0934	50
180.6006	9
181.1041	52
185.0974	41
186.1	3
187.1509	8
189.1189	3
191.1081	3
193.1053	21
193.6117	6
199.1128	25
200.115	2
201.1286	24
202.1128	24
203.1081	31
204.1092	5
217.1587	49
233.1439	14
235.1353	32
243.2076	6
245.1541	2
249.1865	7
251.1997	36
253.1957	11
254.1982	2
259.191	3
261.2219	19
269.2276	2
271.2069	67
272.2103	14
273.2187	8
279.2113	31
280.2112	2
291.2323	87
293.2476	211
294.2493	25
297.2221	198
298.2261	42
303.2324	123
304.2341	21
315.2328	234
316.2338	55
317.2354	4
319.2616	17
320.2706	3
321.2428	15
329.2481	999
330.2515	239
331.2582	47
332.2636	7
333.2422	39
334.2448	8
346.1594	43
347.2076	625
348.262	268
349.2585	36
361.1662	3
362.2269	3
365.2685	445
366.2712	94
367.2726	8
375.1614	12
376.1658	3
384.2417	53
384.7441	31
385.2512	12
