Mass spectrum: L-Lysine; LC-ESI-ITFT; MS2; CE: 100;  [M+H]+
Name: L-Lysine
Class: Organic acids and derivatives; Carboxylic acids and derivatives; Amino acids, peptides, and analogues
Formula: C6H14N2O2
Exact mass: 146.10553
SMILES: NCCCC[C@H](N)C(O)=O
InChI: InChI=1S/C6H14N2O2/c7-4-2-1-3-5(8)6(9)10/h5H,1-4,7-8H2,(H,9,10)/t5-/m0/s1
Instrument: Thermo Scientific Q-Exactive Focus
Instrument type: LC-ESI-ITFT
Ms type: MS2
Ion mode: POSITIVE
Ionization: ESI
Collision energy: 100
Column name: Acquity CSHC18
Retention time: 2.371 min
Base peak: 147.11279
Precursor m/z: 147.11279
Precursor type: [M+H]+
m/z	relative intensity
53.0028	344
54.0344	121
57.5778	115
64.9278	999
85.4323	123
92.5244	229
95.1455	125
105.622	124
130.5102	121
143.4908	122
