Mass spectrum: cis-Aconitic acid; LC-ESI-ITFT; MS2; CE: 40;  [M-H]-
Name: cis-Aconitic acid
Class: Organic acids and derivatives; Carboxylic acids and derivatives; Tricarboxylic acids and derivatives
Formula: C6H6O6
Exact mass: 174.01644
SMILES: OC(=O)C\C(=C\C(O)=O)C(O)=O
InChI: InChI=1S/C6H6O6/c7-4(8)1-3(6(11)12)2-5(9)10/h1H,2H2,(H,7,8)(H,9,10)(H,11,12)/b3-1-
Instrument: Thermo Scientific Q-Exactive Focus
Instrument type: LC-ESI-ITFT
Ms type: MS2
Ion mode: NEGATIVE
Ionization: ESI
Collision energy: 40
Column name: Acquity CSHC18
Retention time: 1.475 min
Base peak: 173.00916
Precursor m/z: 173.00916
Precursor type: [M-H]-
m/z	relative intensity
59.0967	863
87.1995	999
91.5206	857
111.8536	852
114.1174	860
129.6592	865
132.4577	840
140.8689	969
171.8555	894
178.3718	944
