Mass spectrum: Cholesterol; LC-ESI-QTOF; MS2; CE: 30;  [M-H2O+H]+
Name: Cholesterol
Class: NA
Formula: C27H46O
Exact mass: 386.35487
SMILES: CC(C)CCCC(C)C1CCC2C1(CCC3C2CC=C4C3(CCC(C4)O)C)C
InChI: InChI=1S/C27H46O/c1-18(2)7-6-8-19(3)23-11-12-24-22-10-9-20-17-21(28)13-15-26(20,4)25(22)14-16-27(23,24)5/h9,18-19,21-25,28H,6-8,10-17H2,1-5H3
Instrument: impact II
Instrument type: LC-ESI-QTOF
Ms type: MS2
Ion mode: POSITIVE
Ionization: ESI
Collision energy: 30
Column name: Acquity CSHC18
Retention time: 1.679 min
Base peak: 369.35180
Precursor m/z: 369.35180
Precursor type: [M-H2O+H]+
m/z	relative intensity
148.1232	903
162.1388	905
369.8539	999
