Mass spectrum: Leptocarpin; LC-ESI-ITFT; MS2; CE: 50eV;  [M+H]+
Name: Leptocarpin
Class: Sesquiterpenelactone; Heliangolide
Formula: C22H30O8
Exact mass: 422.1941
SMILES: CC(CC)C(=O)O[C@@H]2C[C@@]3(C)O[C@@H]3C[C@H](OC(C)=O)C(CO)=C[C@@H]1OC(=O)C(=C)[C@@H]12
InChI: InChI=1S/C22H30O8/c1-6-11(2)20(25)29-17-9-22(5)18(30-22)8-15(27-13(4)24)14(10-23)7-16-19(17)12(3)21(26)28-16/h7,11,15-19,23H,3,6,8-10H2,1-2,4-5H3/t11?,15-,16-,17+,18+,19-,22+/m0/s1
Instrument: Q Exactive Plus, ThermoFisher Scientific
Instrument type: LC-ESI-ITFT
Ms type: MS2
Ion mode: POSITIVE
Ionization: ESI
Collision energy: 50eV
Column name: Acquity CSHC18
Retention time: 6.597 min
Base peak: 423.2016
Precursor m/z: 423.2016
Precursor type: [M+H]+
Precursor intensity: 20192160
m/z	relative intensity
57.0707	98
70.0941	123
75.0857	63
79.0556	69
85.0652	97
86.1136	53
89.1034	55
95.05	369
155.0861	87
161.06	64
169.1018	319
187.1128	103
197.0958	552
201.0899	85
213.0906	123
215.1051	350
217.0845	67
225.0899	386
231.1007	102
243.1011	999
260.9325	59
261.1131	578
300.3137	62
423.198	223
