Mass spectrum: 2,5-dihydroxybenzoic acid; LC-ESI-QFT; MS2; CE: NCE_15_30_44;  [M-H]-
Name: 2,5-dihydroxybenzoic acid
Class: NA
Formula: C7H6O4
Exact mass: 154.0266
SMILES: C1=CC(=C(C=C1O)C(=O)O)O
InChI: InChI=1S/C7H6O4/c8-4-1-2-6(9)5(3-4)7(10)11/h1-3,8-9H,(H,10,11)
Instrument: Thermo_Qexactive_Plus
Instrument type: LC-ESI-QFT
Ms type: MS2
Ion mode: NEGATIVE
Ionization: ESI
Collision energy: NCE_15_30_44
Column name: Acquity CSHC18
Retention time: 2.485 min
Base peak: 153.0181
Precursor m/z: 153.0181
Precursor type: [M-H]-
Precursor intensity: 2181133000
m/z	relative intensity
51.9834	10
71.1037	10
71.2266	11
75.2316	12
80.1912	12
81.0335	25
85.0276	30
95.0129	32
99.0072	33
108.0214	37
109.029	80
110.0317	226
123.0075	573
153.0185	999
