Mass spectrum: GSH; LC-ESI-QTOF; MS2; CE: 60;  [M-H]-
Name: GSH
Class: NA
Formula: C10H17N3O6S
Exact mass: 307.0838
SMILES: C(CC(=O)NC(CS)C(=O)NCC(=O)O)C(C(=O)O)N
InChI: InChI=1S/C10H17N3O6S/c11-5(10(18)19)1-2-7(14)13-6(4-20)9(17)12-3-8(15)16/h5-6,20H,1-4,11H2,(H,12,17)(H,13,14)(H,15,16)(H,18,19)
Instrument: impact II
Instrument type: LC-ESI-QTOF
Ms type: MS2
Ion mode: NEGATIVE
Ionization: ESI
Collision energy: 60
Column name: Acquity CSHC18
Retention time: 1.864 min
Base peak: 306.0758
Precursor m/z: 306.0758
Precursor type: [M-H]-
m/z	relative intensity
72.009	108
74.0246	716
79.9569	387
80.965	369
82.0299	231
84.0456	262
85.0397	109
87.0562	999
90.0013	155
97.0405	353
99.0559	226
109.0407	303
127.0507	239
128.0345	138
