Mass spectrum: 4-Hydroxybenzaldehyde; LC-ESI-QTOF; MS2; CE: 15;  [M-H]-
Name: 4-Hydroxybenzaldehyde
Class: NA
Formula: C7H6O2
Exact mass: 122.0368
SMILES: C1=CC(=CC=C1C=O)O
InChI: InChI=1S/C7H6O2/c8-5-6-1-3-7(9)4-2-6/h1-5,9H
Instrument: Bruker MicrOTOF-Q
Instrument type: LC-ESI-QTOF
Ms type: MS2
Ion mode: NEGATIVE
Ionization: ESI
Collision energy: 15
Column name: Acquity CSHC18
Retention time: NA
Base peak: 121.0295
Precursor m/z: 121.0295
Precursor type: [M-H]-
m/z	relative intensity
91.0167	5
92.0247	99
93.0319	33
108.0219	83
109.0268	5
120.0214	63
121.0297	999
122.0327	68
