Mass spectrum: 14-Hydroxy-Parthenolide; LC-ESI-ITFT; MS2; CE: 50eV;  [M+H]+
Name: 14-Hydroxy-Parthenolide
Class: Sesquiterpenelactone; Germacrolide
Formula: C15H20O4
Exact mass: 264.1362
SMILES: C[C@]23CCC=C(CC[C@H]1C(=C)C(=O)O[C@@H]1[C@@H]3O2)CO
InChI: InChI=1S/C15H20O4/c1-9-11-6-5-10(8-16)4-3-7-15(2)13(19-15)12(11)18-14(9)17/h4,11-13,16H,1,3,5-8H2,2H3/t11-,12-,13-,15+/m0/s1
Instrument: Q Exactive Plus, ThermoFisher Scientific
Instrument type: LC-ESI-ITFT
Ms type: MS2
Ion mode: POSITIVE
Ionization: ESI
Collision energy: 50eV
Column name: Acquity CSHC18
Retention time: 4.346 min
Base peak: 265.1428
Precursor m/z: 265.1428
Precursor type: [M+H]+
Precursor intensity: 2030234000
m/z	relative intensity
53.4776	8
70.5448	14
81.0706	67
85.0651	9
89.5694	9
91.0549	14
93.0705	37
95.3715	10
97.0651	15
105.0701	38
107.0854	19
109.0652	10
117.0706	23
119.0857	24
121.0649	9
129.0694	11
131.0859	87
133.1014	14
135.0792	12
141.0694	13
143.0855	120
145.1013	44
147.0791	16
147.1163	16
149.0597	39
151.474	10
155.086	16
157.1014	68
159.0816	24
159.1158	106
161.0949	21
169.1017	15
171.0814	17
171.1178	78
173.0596	42
173.0963	18
173.1332	116
175.0743	11
175.1116	19
177.0908	40
182.9217	10
183.1166	233
185.0973	10
187.0739	15
187.1105	116
189.0897	142
189.1267	14
193.1007	20
199.1113	16
201.1276	354
203.4581	11
205.1225	56
207.1011	52
211.1101	65
217.1214	153
219.1377	153
222.6685	11
229.1208	610
230.124	14
235.1344	55
237.1477	10
247.1334	999
265.1441	509
