Mass spectrum: Metoprolol; ESI-TOF; MS2; CE: 6.0000000;  [M+H]+
Name: Metoprolol
Class: NA
Formula: C15H25NO3
Exact mass: 267.18344
SMILES: COCCC1=CC=C(OCC(O)CNC(C)C)C=C1
InChI: InChI=1S/C15H25NO3/c1-12(2)16-10-14(17)11-19-15-6-4-13(5-7-15)8-9-18-3/h4-7,12,14,16-17H,8-11H2,1-3H3
Instrument: waters xevo g2 TOF
Instrument type: ESI-TOF
Ms type: MS2
Ion mode: POSITIVE
Ionization: ESI
Collision energy: 6.0000000
Column name: Acquity CSHC18
Retention time: 1.942 min
Base peak: 268.19144
Precursor m/z: 268.19144
Precursor type: [M+H]+
m/z	relative intensity
74.0611	4
116.1077	14
117.111	1
121.0655	7
136.0396	3
138.9906	5
159.0812	4
176.1079	11
177.0921	6
191.1074	33
192.1109	5
194.1185	10
218.1543	18
219.1583	3
226.1447	60
227.1486	6
250.1808	47
268.3339	999
269.2659	403
