Mass spectrum: Pinnatifidin, 1α,2-dihydroxy; LC-ESI-ITFT; MS2; CE: 50eV;  [M+H]+
Name: Pinnatifidin, 1α,2-dihydroxy
Class: Sesquiterpenelactone; Eudesmanolide
Formula: C15H20O4
Exact mass: 264.1362
SMILES: C=C1[C@H]2C[C@H]3C(C)=CC(O)[C@H](O)[C@]3(C)C[C@H]2OC1=O
InChI: InChI=1S/C15H20O4/c1-7-4-11(16)13(17)15(3)6-12-9(5-10(7)15)8(2)14(18)19-12/h4,9-13,16-17H,2,5-6H2,1,3H3/t9-,10+,11?,12-,13+,15-/m1/s1
Instrument: Q Exactive Plus, ThermoFisher Scientific
Instrument type: LC-ESI-ITFT
Ms type: MS2
Ion mode: POSITIVE
Ionization: ESI
Collision energy: 50eV
Column name: Acquity CSHC18
Retention time: 4.333 min
Base peak: 265.1429
Precursor m/z: 265.1429
Precursor type: [M+H]+
Precursor intensity: 41946630
m/z	relative intensity
68.6343	76
145.0831	78
147.0977	164
159.0985	197
171.0995	207
173.096	330
185.1129	492
187.0933	999
