Mass spectrum: GSH; LC-ESI-QTOF; MS2; CE: 15 / 50;  [M-H]-
Name: GSH
Class: NA
Formula: C10H17N3O6S
Exact mass: 307.0838
SMILES: C(CC(=O)NC(CS)C(=O)NCC(=O)O)C(C(=O)O)N
InChI: InChI=1S/C10H17N3O6S/c11-5(10(18)19)1-2-7(14)13-6(4-20)9(17)12-3-8(15)16/h5-6,20H,1-4,11H2,(H,12,17)(H,13,14)(H,15,16)(H,18,19)
Instrument: impact II
Instrument type: LC-ESI-QTOF
Ms type: MS2
Ion mode: NEGATIVE
Ionization: ESI
Collision energy: 15 / 50
Column name: Acquity CSHC18
Retention time: 0.710 min
Base peak: 306.0763
Precursor m/z: 306.0763
Precursor type: [M-H]-
m/z	relative intensity
128.0352	105
143.0461	176
146.046	182
160.0073	230
179.0462	243
210.0883	257
254.0782	278
272.0886	541
306.0765	999
