Mass spectrum: (+-)-Abscisic acid; LC-ESI-QTOF; MS2; CE: 15.00;  [M-H2O+H]+
Name: (+-)-Abscisic acid
Class: NA
Formula: C15H20O4
Exact mass: 264.1362
SMILES: CC1=CC(=O)CC(C1(C=CC(=CC(=O)O)C)O)(C)C
InChI: InChI=1S/C15H20O4/c1-10(7-13(17)18)5-6-15(19)11(2)8-12(16)9-14(15,3)4/h5-8,19H,9H2,1-4H3,(H,17,18)
Instrument: Bruker MicrOTOF-Q
Instrument type: LC-ESI-QTOF
Ms type: MS2
Ion mode: POSITIVE
Ionization: ESI
Collision energy: 15.00
Column name: Acquity CSHC18
Retention time: NA
Base peak: 247.1329
Precursor m/z: 247.1329
Precursor type: [M-H2O+H]+
m/z	relative intensity
131.0814	28
133.0997	30
135.0793	31
145.0957	32
149.0933	34
150.1025	35
158.1062	40
159.1127	43
161.0958	44
163.0741	51
168.0982	58
172.0863	61
173.1293	61
174.1316	64
183.1158	67
186.1021	78
187.1107	84
188.1148	89
189.0848	116
191.0693	120
196.0877	129
201.1268	129
202.1276	199
205.122	214
211.1128	235
214.097	240
219.1398	358
229.1203	570
230.1271	627
247.1337	999
