Mass spectrum: N-Acetyl-3-desamino-3beta-acetoxy-solanocapsin; APCI-ITFT; MS2; CE: CID 35;  [M-H]-
Name: N-Acetyl-3-desamino-3beta-acetoxy-solanocapsin
Class: NA
Formula: C31H49NO5
Exact mass: 515.36107
SMILES: C[C@@]12[C@](CC[C@]3([H])[C@]2([H])CC[C@@]4(C)[C@@]3([H])C[C@@]([H])(O[C@](C[C@@H](C)CN5C(C)=O)(O)[C@@]5([H])[C@H]6C)[C@@]46[H])([H])C[C@@H](OC(C)=O)CC1
InChI: InChI=1S/C31H49NO5/c1-17-15-31(35)28(32(16-17)19(3)33)18(2)27-26(37-31)14-25-23-8-7-21-13-22(36-20(4)34)9-11-29(21,5)24(23)10-12-30(25,27)6/h17-18,21-28,35H,7-16H2,1-6H3/t17-,18+,21+,22+,23-,24+,25+,26-,27+,28-,29+,30+,31+/m1/s1
Instrument: Orbitrap Elite
Instrument type: APCI-ITFT
Ms type: MS2
Ion mode: NEGATIVE
Ionization: APCI
Collision energy: CID 35
Column name: Acquity CSHC18
Retention time: 0.133 min
Base peak: 514.35270
Precursor m/z: 514.35270
Precursor type: [M-H]-
Precursor intensity: 60627410
m/z	relative intensity
156.1028	7
315.1998	8
331.2298	36
332.2334	2
355.263	5
357.2425	86
358.2495	6
359.2618	3
369.2819	1
371.2569	33
372.2613	3
373.2763	2
375.2529	2
387.2498	4
388.283	1
390.3001	9
397.2725	1
402.2987	1
412.2832	1
415.2862	3
425.3032	3
430.2976	15
431.2985	2
436.3246	2
437.3072	7
438.3045	1
443.3166	17
444.316	1
452.3142	8
453.3204	1
454.3301	57
455.3361	6
456.3172	4
458.2904	1
468.3487	1
470.3255	5
472.3451	999
473.3478	103
478.3308	12
479.3337	1
480.3137	5
486.3603	9
494.3282	2
496.3465	114
497.3508	15
498.3207	29
499.3308	3
