Mass spectrum: MELATONIN; LC-ESI-QFT; MS2; CE: 30eV;  [M+H]+
Name: MELATONIN
Class: NA
Formula: C13H16N2O2
Exact mass: 232.12118
SMILES: COC1=CC2=C(NC=C2CCNC(C)=O)C=C1
InChI: InChI=1S/C13H16N2O2/c1-9(16)14-6-5-10-8-15-13-4-3-11(17-2)7-12(10)13/h3-4,7-8,15H,5-6H2,1-2H3,(H,14,16)
Instrument: Q-Exactive Orbitrap, Thermo Scientfic; Ultimate 3000 HPLC, Thermo Scientfic
Instrument type: LC-ESI-QFT
Ms type: MS2
Ion mode: POSITIVE
Ionization: ESI
Collision energy: 30eV
Column name: Acquity CSHC18
Retention time: 7.322 min
Base peak: 233.1285
Precursor m/z: 233.1285
Precursor type: [M+H]+
Precursor intensity: 113
m/z	relative intensity
52.4775	2
52.4788	3
54.4539	3
59.1078	3
60.0451	2
63.0745	3
75.5726	3
78.8751	3
79.2401	3
80.0064	2
86.0606	108
87.0158	3
89.9965	2
90.9408	3
103.357	2
104.0491	3
108.6126	3
113.0665	2
115.0542	6
117.0703	3
118.0652	3
121.978	3
122.2454	2
130.0645	39
131.0686	4
131.0729	32
142.0652	14
143.062	3
143.0676	6
143.073	70
144.0808	14
147.0806	6
148.0757	22
155.0028	5
159.0679	279
160.0712	3
162.0912	47
173.0836	16
175.0947	999
188.1066	22
191.118	37
198.0914	60
204.1019	42
215.1181	17
216.102	828
217.1054	70
233.1286	164
234.1322	16
