Mass spectrum: 3-Nitrotyrosine; LC-ESI-ITFT; MS2; CE: 30;  [M-H]-
Name: 3-Nitrotyrosine
Class: Organic acids and derivatives; Carboxylic acids and derivatives; Amino acids, peptides, and analogues
Formula: C9H10N2O5
Exact mass: 226.05897
SMILES: N[C@@H](CC1=CC=C(O)C(=C1)[N+]([O-])=O)C(O)=O
InChI: InChI=1S/C9H10N2O5/c10-6(9(13)14)3-5-1-2-8(12)7(4-5)11(15)16/h1-2,4,6,12H,3,10H2,(H,13,14)/t6-/m0/s1
Instrument: Thermo Scientific Q-Exactive Focus
Instrument type: LC-ESI-ITFT
Ms type: MS2
Ion mode: NEGATIVE
Ionization: ESI
Collision energy: 30
Column name: Acquity CSHC18
Retention time: 0.933 min
Base peak: 225.05170
Precursor m/z: 225.05170
Precursor type: [M-H]-
m/z	relative intensity
118.0286	84
119.049	237
134.0362	136
134.06	143
136.0393	400
138.0185	175
148.0393	999
151.0264	261
163.0503	732
164.0343	150
