Mass spectrum: D-Tartaric acid; LC-ESI-ITFT; MS2; CE: 20;  [M-H]-
Name: D-Tartaric acid
Class: Organic oxygen compounds; Organooxygen compounds; Carbohydrates and carbohydrate conjugates
Formula: C4H6O6
Exact mass: 150.01644
SMILES: O[C@@H]([C@H](O)C(O)=O)C(O)=O
InChI: InChI=1S/C4H6O6/c5-1(3(7)8)2(6)4(9)10/h1-2,5-6H,(H,7,8)(H,9,10)/t1-,2-/m0/s1
Instrument: Thermo Scientific Q-Exactive Focus
Instrument type: LC-ESI-ITFT
Ms type: MS2
Ion mode: NEGATIVE
Ionization: ESI
Collision energy: 20
Column name: Acquity CSHC18
Retention time: 0.649 min
Base peak: 149.00916
Precursor m/z: 149.00916
Precursor type: [M-H]-
m/z	relative intensity
58.4978	6
59.0127	213
72.9919	999
75.0076	34
84.2315	5
87.0076	399
103.0025	15
105.0182	22
149.0082	28
163.1834	6
