Mass spectrum: Dihydrozeatin riboside; LC-ESI-QTOF; MS2; CE: -10, -35, -60V;  [M-H]-
Name: Dihydrozeatin riboside
Class: NA
Formula: C15H23N5O5
Exact mass: 353.1699
SMILES: CC(CCNC1=C2C(=NC=N1)N(C=N2)C3C(C(C(O3)CO)O)O)CO
InChI: InChI=1S/C15H23N5O5/c1-8(4-21)2-3-16-13-10-14(18-6-17-13)20(7-19-10)15-12(24)11(23)9(5-22)25-15/h6-9,11-12,15,21-24H,2-5H2,1H3,(H,16,17,18)
Instrument: TripleToF 5600; Sciex
Instrument type: LC-ESI-QTOF
Ms type: MS2
Ion mode: NEGATIVE
Ionization: ESI
Collision energy: -10, -35, -60V
Column name: Acquity CSHC18
Retention time: 7.361 min
Base peak: 352.1614
Precursor m/z: 352.1614
Precursor type: [M-H]-
Precursor intensity: 53287.63
m/z	relative intensity
100.9336	154
220.1194	999
