Mass spectrum: Elaidoyl-L-carnitine hydrochloride; ESI-TOF; MS2; CE: 0.6458333;  [M+H]+
Name: Elaidoyl-L-carnitine hydrochloride
Class: NA
Formula: C25H47NO4
Exact mass: 425.35051
SMILES: O=C(CCCCCCC/C=C/CCCCCCCC)O[C@H](CC([O-])=O)C[N+](C)(C)C
InChI: InChI=1S/C25H47NO4/c1-5-6-7-8-9-10-11-12-13-14-15-16-17-18-19-20-25(29)30-23(21-24(27)28)22-26(2,3)4/h12-13,23H,5-11,14-22H2,1-4H3/b13-12+/t23-/m1/s1
Instrument: waters xevo g2 TOF
Instrument type: ESI-TOF
Ms type: MS2
Ion mode: POSITIVE
Ionization: ESI
Collision energy: 0.6458333
Column name: Acquity CSHC18
Retention time: 4.802 min
Base peak: 426.35851
Precursor m/z: 426.35851
Precursor type: [M+H]+
m/z	relative intensity
57.072	1
60.0826	18
69.0711	2
71.0872	4
81.0711	7
83.0872	4
85.0665	325
86.0333	31
87.0345	3
95.0866	12
97.1027	11
103.04	2
107.0868	3
109.1026	10
121.1025	7
123.1181	7
125.0979	6
129.0918	1
135.1181	17
137.1337	4
139.1131	10
144.1031	52
145.1062	4
149.1337	15
150.1374	1
151.1493	5
153.1285	11
157.0873	14
158.0555	1
163.1492	13
164.1527	1
165.1648	5
167.1442	11
171.1401	2
177.1655	10
178.17	1
181.1598	11
182.1634	1
185.1563	2
191.1805	6
195.1753	10
196.1788	1
199.1348	1
205.1968	2
209.1915	7
213.1497	4
223.2058	2
227.1652	7
228.1334	1
241.1448	25
242.1491	3
247.2431	41
248.2474	7
255.1603	33
256.1646	5
265.2538	73
266.2573	15
267.26	1
269.2074	40
270.1791	6
283.2279	22
284.1948	7
297.2071	40
298.2123	7
311.2228	33
312.2251	6
325.2376	12
326.2416	2
367.2856	164
368.289	42
369.2898	6
389.2666	14
390.2705	2
403.2625	3
425.243	2
426.3574	999
427.3619	287
