Mass spectrum: 5-HYDROXYTRYPTOPHAN; LC-ESI-QTOF; MS2; CE: 20;  [M-H]-
Name: 5-HYDROXYTRYPTOPHAN
Class: NA
Formula: C11H12N2O3
Exact mass: 220.08479
SMILES: N[C@@H](CC1=CNC2=C1C=C(O)C=C2)C(O)=O
InChI: InChI=1S/C11H12N2O3/c12-9(11(15)16)3-6-5-13-10-2-1-7(14)4-8(6)10/h1-2,4-5,9,13-14H,3,12H2,(H,15,16)/t9-/m0/s1
Instrument: Agilent 6530Â Q-TOF LC/MS
Instrument type: LC-ESI-QTOF
Ms type: MS2
Ion mode: NEGATIVE
Ionization: ESI
Collision energy: 20
Column name: NA
Retention time: 0.200 min
Base peak: 219.07746
Precursor m/z: 219.07746
Precursor type: [M-H]-
Precursor intensity: 131
m/z	relative intensity
66.0392	115
74.0336	118
131.047	186
132.0731	191
144.0644	248
148.0353	359
157.0541	609
158.0654	999
