Mass spectrum: Dihomomethionine; LC-ESI-QTOF; MS2; CE: 15.00;  [M+H]+
Name: Dihomomethionine
Class: NA
Formula: C7H15NO2S
Exact mass: 177.0823
SMILES: CSCCCCC(C(=O)[O-])[NH3+]
InChI: InChI=1S/C7H15NO2S/c1-11-5-3-2-4-6(8)7(9)10/h6H,2-5,8H2,1H3,(H,9,10)
Instrument: Bruker MicrOTOF-Q
Instrument type: LC-ESI-QTOF
Ms type: MS2
Ion mode: POSITIVE
Ionization: ESI
Collision energy: 15.00
Column name: Acquity CSHC18
Retention time: NA
Base peak: 178.0896
Precursor m/z: 178.0896
Precursor type: [M+H]+
m/z	relative intensity
115.0534	125
130.0818	101
132.0872	174
160.0803	73
161.062	999
161.5549	69
163.0738	73
178.1456	129
568.9736	76
