Mass spectrum: Farnesol; LC-ESI-QTOF; MS2; CE: 0.00;  [M-H2O+H]+
Name: Farnesol
Class: NA
Formula: C15H26O
Exact mass: 222.1984
SMILES: CC(=CCCC(=CCCC(=CCO)C)C)C
InChI: InChI=1S/C15H26O/c1-13(2)7-5-8-14(3)9-6-10-15(4)11-12-16/h7,9,11,16H,5-6,8,10,12H2,1-4H3
Instrument: Bruker MicrOTOF-Q
Instrument type: LC-ESI-QTOF
Ms type: MS2
Ion mode: POSITIVE
Ionization: ESI
Collision energy: 0.00
Column name: Acquity CSHC18
Retention time: NA
Base peak: 205.1951
Precursor m/z: 205.1951
Precursor type: [M-H2O+H]+
m/z	relative intensity
105.0686	4
107.0845	9
109.1	6
119.0817	25
121.1001	470
122.1038	39
123.1159	129
124.1213	6
124.4944	2
133.0997	8
135.1157	489
136.122	43
137.1317	26
147.1148	20
148.1221	6
149.1318	999
149.2744	4
149.3157	1
150.1358	142
161.1316	15
162.1423	6
163.1472	182
164.1515	15
177.1618	20
205.0604	5
205.1951	972
206.1983	171
