Mass spectrum: NICOTINAMIDE; LC-ESI-QFT; MS2; CE: 30eV;  [M+H]+
Name: NICOTINAMIDE
Class: NA
Formula: C6H6N2O
Exact mass: 122.04801
SMILES: NC(=O)C1=CN=CC=C1
InChI: InChI=1S/C6H6N2O/c7-6(9)5-2-1-3-8-4-5/h1-4H,(H2,7,9)
Instrument: Q-Exactive Orbitrap, Thermo Scientfic; Ultimate 3000 HPLC, Thermo Scientfic
Instrument type: LC-ESI-QFT
Ms type: MS2
Ion mode: POSITIVE
Ionization: ESI
Collision energy: 30eV
Column name: Acquity CSHC18
Retention time: 0.863 min
Base peak: 123.0553
Precursor m/z: 123.0553
Precursor type: [M+H]+
Precursor intensity: 124
m/z	relative intensity
53.0394	18
78.0344	49
79.042	7
79.0549	117
79.0571	7
80.0501	999
81.0535	18
81.0705	17
83.8403	3
84.5087	3
89.1352	4
95.0609	6
96.0449	270
105.0341	25
105.0451	6
106.0293	76
108.9925	4
111.435	3
123.1174	4
124.0397	84
124.0526	25
124.0589	285
