Mass spectrum: L-Cysteine; ESI-TOF; MS2; CE: 0.6458333;  [M+H]+
Name: L-Cysteine
Class: NA
Formula: C3H7NO2S
Exact mass: 121.01975
SMILES: NC(CS)C(O)=O
InChI: InChI=1S/C3H7NO2S/c4-2(1-7)3(5)6/h2,7H,1,4H2,(H,5,6)
Instrument: waters xevo g2 TOF
Instrument type: ESI-TOF
Ms type: MS2
Ion mode: POSITIVE
Ionization: ESI
Collision energy: 0.6458333
Column name: Acquity CSHC18
Retention time: 0.531 min
Base peak: 122.02775
Precursor m/z: 122.02775
Precursor type: [M+H]+
m/z	relative intensity
56.9438	13
73.0289	31
74.0245	742
75.0276	12
76.0226	95
86.9912	1
88.0224	43
92.0172	25
105.0009	52
106.9944	1
107.9946	8
113.9644	316
114.971	8
120.0118	999
121.0401	1
122.0276	452
124.0234	1
124.956	1
129.9423	28
134.0276	1
136.9723	1
139.0501	1
142.0361	1
148.043	1
151.984	454
152.9847	23
153.9888	21
162.9212	1
177.9995	1
194.1184	1
195.0259	1
202.1811	1
205.9924	1
217.8599	20
220.9454	1
224.005	1
241.0312	152
241.8854	1
242.0338	1
243.0283	1
244.03	1
249.884	1
263.0145	22
279.0862	1
293.9432	1
294.9498	1
295.957	1
365.1089	17
533.963	1
534.971	1
