Mass spectrum: 3,5-dimethoxy-4-hydroxybenzoic acid; LC-ESI-QFT; MS2; CE: NCE_15_30_48;  [M-H]-
Name: 3,5-dimethoxy-4-hydroxybenzoic acid
Class: NA
Formula: C9H10O5
Exact mass: 198.0528
SMILES: COC1=CC(=CC(=C1O)OC)C(=O)O
InChI: InChI=1S/C9H10O5/c1-13-6-3-5(9(11)12)4-7(14-2)8(6)10/h3-4,10H,1-2H3,(H,11,12)
Instrument: Thermo_Qexactive_Plus
Instrument type: LC-ESI-QFT
Ms type: MS2
Ion mode: NEGATIVE
Ionization: ESI
Collision energy: NCE_15_30_48
Column name: Acquity CSHC18
Retention time: 3.451 min
Base peak: 197.0449
Precursor m/z: 197.0449
Precursor type: [M-H]-
Precursor intensity: 14191620
m/z	relative intensity
70.8366	59
109.4774	62
121.0285	82
123.0082	118
138.0314	175
153.0545	236
162.8393	267
166.9972	399
182.0214	405
183.026	422
197.0446	999
