Mass spectrum: GUANIDINOSUCCINATE; LC-ESI-QTOF; MS2; CE: 40;  [M+H]+
Name: GUANIDINOSUCCINATE
Class: NA
Formula: C5H9N3O4
Exact mass: 175.05931
SMILES: NC(=N)N[C@@H](CC(O)=O)C(O)=O
InChI: InChI=1S/C5H9N3O4/c6-5(7)8-2(4(11)12)1-3(9)10/h2H,1H2,(H,9,10)(H,11,12)(H4,6,7,8)/t2-/m0/s1
Instrument: Agilent 6530Â Q-TOF LC/MS
Instrument type: LC-ESI-QTOF
Ms type: MS2
Ion mode: POSITIVE
Ionization: ESI
Collision energy: 40
Column name: NA
Retention time: 0.200 min
Base peak: 176.06855
Precursor m/z: 176.06855
Precursor type: [M+H]+
Precursor intensity: 124.5
m/z	relative intensity
43.0105	202
43.0142	431
43.018	580
43.0218	845
43.0255	999
43.0293	933
43.033	773
43.0368	637
43.0406	507
43.0443	397
43.0481	301
43.0518	225
43.0556	172
43.0594	122
43.0631	90
44.0313	176
44.0351	248
44.0389	284
44.0427	385
44.0465	430
44.0503	372
44.0541	294
44.0579	218
44.0617	167
44.0655	113
44.0693	92
44.9948	87
46.0194	161
46.0232	280
46.0271	305
46.031	273
46.0349	205
46.0388	145
46.0427	117
46.0466	96
70.011	89
70.0158	255
70.0206	404
70.0254	399
70.0302	330
70.035	265
70.0398	208
70.0446	157
70.0494	119
70.0542	98
74.0132	121
74.0181	189
74.023	206
74.028	186
74.0329	146
74.0379	106
