Mass spectrum: riboflavin; LC-ESI-QTOF; MS2; CE: -10, -35, -60V;  [M-H]-
Name: riboflavin
Class: NA
Formula: C17H20N4O6
Exact mass: 376.1383
SMILES: CC1=CC2=C(C=C1C)N(C3=NC(=O)NC(=O)C3=N2)CC(C(C(CO)O)O)O
InChI: InChI=1S/C17H20N4O6/c1-7-3-9-10(4-8(7)2)21(5-11(23)14(25)12(24)6-22)15-13(18-9)16(26)20-17(27)19-15/h3-4,11-12,14,22-25H,5-6H2,1-2H3,(H,20,26,27)
Instrument: TripleToF 5600; Sciex
Instrument type: LC-ESI-QTOF
Ms type: MS2
Ion mode: NEGATIVE
Ionization: ESI
Collision energy: -10, -35, -60V
Column name: Acquity CSHC18
Retention time: 6.961 min
Base peak: 375.1334
Precursor m/z: 375.1334
Precursor type: [M-H]-
Precursor intensity: 22635.94
m/z	relative intensity
197.0579	20
212.0767	78
241.0656	168
241.0744	173
255.087	780
256.0845	154
375.1339	999
