Mass spectrum: N-caffeoyl Putrescine; LC-ESI-ITFT; MS2; CE: 35eV;  [M-H]-
Name: N-caffeoyl Putrescine
Class: Phenolamide
Formula: C13H18N2O3
Exact mass: 250.1317
SMILES: C1=CC(=C(C=C1C=CC(=O)NCCCCN)O)O
InChI: InChI=1S/C13H18N2O3/c14-7-1-2-8-15-13(18)6-4-10-3-5-11(16)12(17)9-10/h3-6,9,16-17H,1-2,7-8,14H2,(H,15,18)
Instrument: LTQ Orbitrap XL, Thermo Scientfic; Dionex Ultimate 300
Instrument type: LC-ESI-ITFT
Ms type: MS2
Ion mode: NEGATIVE
Ionization: ESI
Collision energy: 35eV
Column name: Lichrospher C18 Column 250*4 5um, Interchim
Retention time: 18.01 min
Base peak: 249.1246
Precursor m/z: 249.1246
Precursor type: [M-H]-
m/z	relative intensity
249.279	999
