Mass spectrum: gallic acid; LC-ESI-QFT; MS2; CE: NCE_15_30_40;  [M-H]-
Name: gallic acid
Class: NA
Formula: C7H6O5
Exact mass: 170.0215
SMILES: C1=C(C=C(C(=C1O)O)O)C(=O)O
InChI: InChI=1S/C7H6O5/c8-4-1-3(7(11)12)2-5(9)6(4)10/h1-2,8-10H,(H,11,12)
Instrument: Thermo_Qexactive_Plus
Instrument type: LC-ESI-QFT
Ms type: MS2
Ion mode: NEGATIVE
Ionization: ESI
Collision energy: NCE_15_30_40
Column name: Acquity CSHC18
Retention time: 1.075 min
Base peak: 169.0131
Precursor m/z: 169.0131
Precursor type: [M-H]-
Precursor intensity: 829848100
m/z	relative intensity
67.0175	3
69.0329	3
70.8898	4
75.4133	4
79.0177	4
81.033	5
83.0122	6
97.0279	7
97.9266	8
107.0127	9
124.0153	19
125.0235	24
126.0266	25
134.6397	63
150.7478	615
169.013	999
