Mass spectrum: INOSINE MONOPHOSPHATE; LC-ESI-QFT; MS2; CE: 30eV;  [M-H]-
Name: INOSINE MONOPHOSPHATE
Class: NA
Formula: C10H13N4O8P
Exact mass: 348.04710
SMILES: O[C@@H]1[C@@H](COP(O)(O)=O)O[C@H]([C@@H]1O)N1C=NC2=C1N=CNC2=O
InChI: InChI=1S/C10H13N4O8P/c15-6-4(1-21-23(18,19)20)22-10(7(6)16)14-3-13-5-8(14)11-2-12-9(5)17/h2-4,6-7,10,15-16H,1H2,(H,11,12,17)(H2,18,19,20)/t4-,6-,7-,10-/m1/s1
Instrument: Q-Exactive Orbitrap, Thermo Scientfic; Ultimate 3000 HPLC, Thermo Scientfic
Instrument type: LC-ESI-QFT
Ms type: MS2
Ion mode: NEGATIVE
Ionization: ESI
Collision energy: 30eV
Column name: Acquity CSHC18
Retention time: 0.704 min
Base peak: 347.0398
Precursor m/z: 347.0398
Precursor type: [M-H]-
Precursor intensity: 176
m/z	relative intensity
54.5145	1
62.9623	3
80.5702	1
90.819	1
92.0238	7
96.9679	999
114.0225	1
135.0296	385
135.7412	1
136.0329	13
138.9786	52
139.9552	1
150.3479	1
150.9787	143
156.9227	2
162.9786	2
177.0407	9
192.9896	74
211.0004	162
212.0042	2
220.9044	1
235.6654	1
347.0396	274
348.0429	15
