Mass spectrum: Petunidin-3-coumaroyl rutinoside-5-glucoside; LC-ESI-ITFT; MS2; CE: 35eV;  [M]+
Name: Petunidin-3-coumaroyl rutinoside-5-glucoside
Class: Anthocyanidin
Formula: [C43H49O23]+
Exact mass: 933.2659
SMILES: CC1C(C(C(C(O1)OCC2C(C(C(C(O2)OC3=C([O+]=C4C=C(C=C(C4=C3)OC5C(C(C(C(O5)CO)O)O)O)O)C6=CC(=C(C(=C6)OC)O)O)O)O)O)O)O)OC(=O)C=CC7=CC=C(C=C7)O
InChI: InChI=1S/C43H48O23/c1-16-39(66-29(48)8-5-17-3-6-19(45)7-4-17)35(54)38(57)41(60-16)59-15-28-32(51)34(53)37(56)43(65-28)63-26-13-21-23(61-40(26)18-9-22(47)30(49)25(10-18)58-2)11-20(46)12-24(21)62-42-36(55)33(52)31(50)27(14-44)64-42/h3-13,16,27-28,31-39,41-44,50-57H,14-15H2,1-2H3,(H3-,45,46,47,48,49)/p+1
Instrument: LTQ Orbitrap XL, Thermo Scientfic; Dionex Ultimate 300
Instrument type: LC-ESI-ITFT
Ms type: MS2
Ion mode: POSITIVE
Ionization: ESI
Collision energy: 35eV
Column name: Lichrospher C18 Column 250*4 5um, Interchim
Retention time: 54.69 min
Base peak: 933.2690
Precursor m/z: 933.2690
Precursor type: [M]+
m/z	relative intensity
287.0398	999
317.0463	171
352.8389	124
432.9641	140
448.9365	327
473.0513	156
484.8848	140
771.2427	608
786.9564	280
829.2063	124
889.2104	218
897.2518	171
900.6475	171
901.5789	249
904.1041	171
