Mass spectrum: Rosmarinic acid; LC-ESI-QTOF; MS2; CE: 19.58;  [M+H]+
Name: Rosmarinic acid
Class: NA
Formula: C18H16O8
Exact mass: 360.0845
SMILES: C1=CC(=C(C=C1CC(C(=O)O)OC(=O)C=CC2=CC(=C(C=C2)O)O)O)O
InChI: InChI=1S/C18H16O8/c19-12-4-1-10(7-14(12)21)3-6-17(23)26-16(18(24)25)9-11-2-5-13(20)15(22)8-11/h1-8,16,19-22H,9H2,(H,24,25)
Instrument: Bruker MicrOTOF-Q
Instrument type: LC-ESI-QTOF
Ms type: MS2
Ion mode: POSITIVE
Ionization: ESI
Collision energy: 19.58
Column name: Acquity CSHC18
Retention time: NA
Base peak: 361.0918
Precursor m/z: 361.0918
Precursor type: [M+H]+
m/z	relative intensity
117.0316	6
135.0422	95
136.0465	7
139.0367	45
140.0389	4
145.0265	155
146.0297	15
163.0382	999
164.0412	104
165.0432	8
181.0488	23
182.055	2
239.0717	3
249.0543	7
250.0561	2
251.0674	2
255.0676	3
267.0645	6
277.046	8
285.071	2
295.0562	14
