Mass spectrum: ALLOTHREONINE; LC-ESI-QFT; MS2; CE: 30eV;  [M+H]+
Name: ALLOTHREONINE
Class: NA
Formula: C4H9NO3
Exact mass: 119.05824
SMILES: C[C@H](O)[C@H](N)C(O)=O
InChI: InChI=1S/C4H9NO3/c1-2(6)3(5)4(7)8/h2-3,6H,5H2,1H3,(H,7,8)/t2-,3-/m0/s1
Instrument: Q-Exactive Orbitrap, Thermo Scientfic; Ultimate 3000 HPLC, Thermo Scientfic
Instrument type: LC-ESI-QFT
Ms type: MS2
Ion mode: POSITIVE
Ionization: ESI
Collision energy: 30eV
Column name: Acquity CSHC18
Retention time: 0.602 min
Base peak: 120.0655
Precursor m/z: 120.0655
Precursor type: [M+H]+
Precursor intensity: 178
m/z	relative intensity
52.5022	1
53.3975	1
56.0504	813
57.0344	61
57.0537	12
58.066	16
58.9648	1
60.0773	1
60.6063	1
60.9389	1
62.548	11
67.0423	1
68.0503	8
70.1511	1
72.4836	1
72.7449	1
73.0293	11
74.0246	26
74.0609	879
75.0449	3
75.0642	19
78.3109	1
78.9978	3
80.6283	1
81.0454	4
83.0611	11
84.0452	224
85.0291	3
85.0486	2
87.1336	1
91.0551	1
95.061	15
96.069	109
96.0721	3
97.0083	13
97.0768	25
97.4642	2
97.7522	1
102.0557	999
103.0591	25
107.0611	3
109.0767	306
118.968	16
119.0863	4
119.0901	25
119.9759	9
120.0242	38
120.0563	2
120.0662	94
120.0909	2
121.0655	1
124.0875	61
125.0714	16
126.1032	44
129.0692	2
131.0776	2
135.0559	4
