Mass spectrum: Formononetin glucoside; LC-ESI-QTOF; MS2; CE: 20-40eV;  [M+H]+
Name: Formononetin glucoside
Class: flavonoid
Formula: C22H22O9
Exact mass: 430.1264
SMILES: COC1=CC=C(C=C1)C2=COC=3C=C(C=CC3C2=O)OC4(C(C(C(C(CO)(O4)[H])(O)[H])(O)[H])(O)[H])[H]
InChI: InChI=1S/C22H22O9/c1-28-12-4-2-11(3-5-12)15-10-29-16-8-13(6-7-14(16)18(15)24)30-22-21(27)20(26)19(25)17(9-23)31-22/h2-8,10,17,19-23,25-27H,9H2,1H3
Instrument: Impact II, Bruker; Dionex 3000, Thermo Scientific
Instrument type: LC-ESI-QTOF
Ms type: MS2
Ion mode: POSITIVE
Ionization: ESI
Collision energy: 20-40eV
Column name: Acquity CSHC18
Retention time: 3.926 min
Base peak: 431.1328
Precursor m/z: 431.1328
Precursor type: [M+H]+
Precursor intensity: 2185.25
m/z	relative intensity
119.0855	22
173.0577	18
226.0606	39
252.9824	19
254.0572	33
255.0594	23
269.0806	999
270.0829	255
271.0599	38
297.0768	19
329.2005	18
431.1307	56
