Mass spectrum: L-Phenylalanine; LC-ESI-QTOF; MS2; CE: 15.00;  [M+H]+
Name: L-Phenylalanine
Class: NA
Formula: C9H11NO2
Exact mass: 165.0790
SMILES: C1=CC=C(C=C1)CC(C(=O)O)N
InChI: InChI=1S/C9H11NO2/c10-8(9(11)12)6-7-4-2-1-3-5-7/h1-5,8H,6,10H2,(H,11,12)
Instrument: Bruker MicrOTOF-Q
Instrument type: LC-ESI-QTOF
Ms type: MS2
Ion mode: POSITIVE
Ionization: ESI
Collision energy: 15.00
Column name: Acquity CSHC18
Retention time: NA
Base peak: 166.0863
Precursor m/z: 166.0863
Precursor type: [M+H]+
m/z	relative intensity
91.05	14
93.06	6
94.06	1
102.05	3
103	1
103.05	170
103.25	1
103.3	1
104.05	12
106.09	1
107.05	13
108.06	1
118.06	4
118.87	1
119.07	7
119.5	1
119.54	1
119.6	1
119.67	1
119.75	1
120.08	999
120.27	3
120.31	2
120.39	2
120.45	2
120.5	2
120.52	2
120.6	1
120.69	1
120.73	1
120.91	1
121.08	67
121.28	1
121.51	1
121.68	1
121.98	1
122.08	1
122.44	1
122.73	1
131.05	11
132.05	1
149.06	2
166.09	1
412.36	1
