Mass spectrum: Fructose 1-phosphate; LC-ESI-ITFT; MS2; CE: 30;  [M-H]-
Name: Fructose 1-phosphate
Class: Organic oxygen compounds; Organooxygen compounds; Carbohydrates and carbohydrate conjugates
Formula: C6H13O9P
Exact mass: 260.02972
SMILES: OC[C@H]1O[C@](O)(COP(O)(O)=O)[C@@H](O)[C@@H]1O
InChI: InChI=1S/C6H13O9P/c7-1-3-4(8)5(9)6(10,15-3)2-14-16(11,12)13/h3-5,7-10H,1-2H2,(H2,11,12,13)/t3-,4-,5+,6-/m1/s1
Instrument: Thermo Scientific Q-Exactive Focus
Instrument type: LC-ESI-ITFT
Ms type: MS2
Ion mode: NEGATIVE
Ionization: ESI
Collision energy: 30
Column name: Acquity CSHC18
Retention time: 0.926 min
Base peak: 259.02243
Precursor m/z: 259.02243
Precursor type: [M-H]-
m/z	relative intensity
73.0283	2
77.4969	1
78.9579	772
92.5136	4
96.9685	999
101.0232	9
102.9476	4
178.4106	1
193.7984	1
255.9912	1
