Mass spectrum: 3-METHYLADENINE; LC-ESI-QFT; MS2; CE: 30eV;  [M+H]+
Name: 3-METHYLADENINE
Class: NA
Formula: C6H7N5
Exact mass: 149.07015
SMILES: CN1C=NC(N)=C2N=CN=C12
InChI: InChI=1S/C6H7N5/c1-11-3-10-5(7)4-6(11)9-2-8-4/h2-3H,7H2,1H3
Instrument: Q-Exactive Orbitrap, Thermo Scientfic; Ultimate 3000 HPLC, Thermo Scientfic
Instrument type: LC-ESI-QFT
Ms type: MS2
Ion mode: POSITIVE
Ionization: ESI
Collision energy: 30eV
Column name: Acquity CSHC18
Retention time: 0.678 min
Base peak: 150.0774
Precursor m/z: 150.0774
Precursor type: [M+H]+
Precursor intensity: 161
m/z	relative intensity
50.4714	28
51.1642	26
53.5702	23
54.3812	22
55.0299	24
56.619	22
56.7852	21
69.3428	24
69.4896	23
72.3614	23
74.7087	23
77.6896	27
82.0403	32
86.6654	25
95.6621	24
96.056	40
100.8954	25
108.0432	54
108.056	28
109.0512	53
115.9605	32
123.0668	130
133.051	378
151.0744	287
151.0808	999
