Mass spectrum: Putative_Achyranthoside D; LC-ESI-QTOF; MS2; CE: 20-40eV;  [M+NH4]+
Name: Putative_Achyranthoside D
Class: Triterpene saponins
Formula: C53H82O25
Exact mass: 1118.5145
SMILES: CC1(C)CCC2(CCC3(C)C(=CCC4(C5(C)CCC(C(C)(C)C5(CCC43C)[H])(OC6(C(C(C(C(C(=O)O)(O6)[H])(O)[H])(OC(C(C(=O)O)(O)[H])(OCC(=O)O)[H])[H])(OC7(C(C(C(C(CO)(O7)[H])(O)[H])(O)[H])(O)[H])[H])[H])[H])[H])[H])C2(C1)[H])C(=O)OC8(C(C(C(C(CO)(O8)[H])(O)[H])(O)[H])(O)[H])[H]
InChI: InChI=1S/C53H82O25/c1-48(2)14-16-53(47(70)78-45-35(63)33(61)31(59)25(20-55)73-45)17-15-51(6)22(23(53)18-48)8-9-27-50(5)12-11-28(49(3,4)26(50)10-13-52(27,51)7)74-46-40(77-44-34(62)32(60)30(58)24(19-54)72-44)38(36(64)39(76-46)42(68)69)75-43(37(65)41(66)67)71-21-29(56)57/h8,23-28,30-40,43-46,54-55,58-65H,9-21H2,1-7H3,(H,56,57)(H,66,67)(H,68,69)
Instrument: Impact II, Bruker; Dionex 3000, Thermo Scientific
Instrument type: LC-ESI-QTOF
Ms type: MS2
Ion mode: POSITIVE
Ionization: ESI
Collision energy: 20-40eV
Column name: Acquity CSHC18
Retention time: 12.725 min
Base peak: 1136.5460
Precursor m/z: 1136.5460
Precursor type: [M+NH4]+
Precursor intensity: 149333.4
m/z	relative intensity
145.0749	23
163.042	26
207.1721	45
219.1934	76
221.1716	81
303.0536	126
321.063	244
339.0735	999
