Mass spectrum: 4-Hydroxycinnamic acid; LC-ESI-ITFT; MS2; CE: 30;  [M-H]-
Name: 4-Hydroxycinnamic acid
Class: Phenylpropanoids and polyketides; Cinnamic acids and derivatives; Hydroxycinnamic acids and derivatives
Formula: C9H8O3
Exact mass: 164.04734
SMILES: OC(=O)\C=C\C1=CC=C(O)C=C1
InChI: InChI=1S/C9H8O3/c10-8-4-1-7(2-5-8)3-6-9(11)12/h1-6,10H,(H,11,12)/b6-3+
Instrument: Thermo Scientific Q-Exactive Focus
Instrument type: LC-ESI-ITFT
Ms type: MS2
Ion mode: NEGATIVE
Ionization: ESI
Collision energy: 30
Column name: Acquity CSHC18
Retention time: 0.925 min
Base peak: 163.04007
Precursor m/z: 163.04007
Precursor type: [M-H]-
m/z	relative intensity
59.497	4
65.0385	16
86.7301	4
91.0542	58
93.0334	252
95.8366	4
104.0256	11
117.0335	55
119.0491	999
139.3071	4
