Mass spectrum: L-Hydroxyproline; LC-ESI-QTOF; MS2; CE: 15.00;  [2M+H]+
Name: L-Hydroxyproline
Class: NA
Formula: C5H9NO3
Exact mass: 131.0582
SMILES: C1C(CNC1C(=O)O)O
InChI: InChI=1S/C5H9NO3/c7-3-1-4(5(8)9)6-2-3/h3-4,6-7H,1-2H2,(H,8,9)
Instrument: Bruker MicrOTOF-Q
Instrument type: LC-ESI-QTOF
Ms type: MS2
Ion mode: POSITIVE
Ionization: ESI
Collision energy: 15.00
Column name: Acquity CSHC18
Retention time: NA
Base peak: 263.1237
Precursor m/z: 263.1237
Precursor type: [2M+H]+
m/z	relative intensity
86.06	5
91.58	2
95.07	2
114.05	11
122.97	2
131.92	2
132.06	999
132.21	3
132.32	6
132.48	1
132.8	2
132.86	2
133.07	46
134.07	2
134.12	2
135.55	2
135.61	3
262.12	2
265.1	3
287.25	2
536.57	1
595.68	2
