Mass spectrum: 5-cis Carbaprostacyclin; ESI-TOF; MS2; CE: 6.0000000;  [M+H]+
Name: 5-cis Carbaprostacyclin
Class: NA
Formula: C21H34O4
Exact mass: 350.24571
SMILES: CCCCCC(O)/C=C/[C@H]1C(O)CC2C\C(=C\CCCC(=O)O)\CC12
InChI: InChI=1S/C21H34O4/c1-2-3-4-8-17(22)10-11-18-19-13-15(7-5-6-9-21(24)25)12-16(19)14-20(18)23/h7,10-11,16-20,22-23H,2-6,8-9,12-14H2,1H3,(H,24,25)/b11-10+,15-7-/t16?,17?,18-,19?,20?/m1/s1
Instrument: waters xevo g2 TOF
Instrument type: ESI-TOF
Ms type: MS2
Ion mode: POSITIVE
Ionization: ESI
Collision energy: 6.0000000
Column name: Acquity CSHC18
Retention time: 4.529 min
Base peak: 351.25371
Precursor m/z: 351.25371
Precursor type: [M+H]+
m/z	relative intensity
95.0863	2
117.0709	3
131.0865	3
133.1019	1
149.0787	10
151.1489	2
161.0975	6
165.091	3
167.0971	3
171.1178	2
173.1324	6
177.0929	7
179.1069	26
186.0995	37
186.6001	22
187.1485	19
189.1451	3
191.103	1
199.1124	3
205.1223	2
207.1355	3
213.1653	6
215.1431	1
219.1357	1
221.1551	1
231.1377	8
232.1412	1
233.1535	1
235.1689	4
245.1517	6
255.2125	3
269.2284	2
273.1876	2
279.2121	17
297.2213	56
298.2258	10
313.2155	11
315.2321	999
316.2334	207
317.2396	26
331.2261	51
332.2316	9
333.2425	103
334.2449	18
349.2372	17
352.2122	8
352.7149	2
