Mass spectrum: 1,2-distearoyl-sn-glycero-3-phosphocholine; ESI-TOF; MS2; CE: 6.0000000;  [M+H]+
Name: 1,2-distearoyl-sn-glycero-3-phosphocholine
Class: NA
Formula: C44H88NO8P
Exact mass: 789.62476
SMILES: [H]C([H])([H])C([H])([H])C([H])([H])C([H])([H])C([H])([H])C([H])([H])C([H])([H])C([H])([H])C([H])([H])C([H])([H])C([H])([H])C([H])([H])C([H])([H])C([H])([H])C([H])([H])C([H])([H])C([H])([H])C(=O)OC([H])([H])C([H])(OC(=O)C([H])([H])C([H])([H])C([H])([H])C([H])([H])C([H])([H])C([H])([H])C([H])([H])C([H])([H])C([H])([H])C([H])([H])C([H])([H])C([H])([H])C([H])([H])C([H])([H])C([H])([H])C([H])([H])C([H])([H])[H])C([H])([H])OP(=O)([O-])OC([H])([H])C([H])([H])[N+](C([H])([H])[H])(C([H])([H])[H])C([H])([H])[H]
InChI: InChI=1S/C44H88NO8P/c1-6-8-10-12-14-16-18-20-22-24-26-28-30-32-34-36-43(46)50-40-42(41-52-54(48,49)51-39-38-45(3,4)5)53-44(47)37-35-33-31-29-27-25-23-21-19-17-15-13-11-9-7-2/h42H,6-41H2,1-5H3
Instrument: waters xevo g2 TOF
Instrument type: ESI-TOF
Ms type: MS2
Ion mode: POSITIVE
Ionization: ESI
Collision energy: 6.0000000
Column name: Acquity CSHC18
Retention time: 11.884 min
Base peak: 790.63276
Precursor m/z: 790.63276
Precursor type: [M+H]+
m/z	relative intensity
125.9862	6
139.9884	3
184.0749	4
323.2266	6
400.7781	6
401.2788	3
414.7946	145
415.295	38
415.7961	19
422.7813	16
423.2815	5
423.7842	9
429.0893	5
438.2884	7
478.3321	3
479.7727	9
487.7604	7
506.36	112
507.3644	38
508.3693	8
607.5672	7
608.5699	3
684.204	9
685.2008	6
689.1657	5
690.1629	3
714.2329	3
722.5307	4
746.5178	3
762.5952	19
763.3765	11
765.3776	6
776.6168	10
784.5774	3
790.6328	999
791.6365	973
