Mass spectrum: 4-Methoxy-3-indolylmethylglucosinolate; LC-ESI-ITFT; MS2; CE: 30;  [M+H]+
Name: 4-Methoxy-3-indolylmethylglucosinolate
Class: NA
Formula: C17H22N2O10S2
Exact mass: 478.0716
SMILES: COC1=CC=CC2=C1C(=CN2)CC(=NOS(=O)(=O)O)SC3C(C(C(C(O3)CO)O)O)O
InChI: InChI=1S/C17H22N2O10S2/c1-27-10-4-2-3-9-13(10)8(6-18-9)5-12(19-29-31(24,25)26)30-17-16(23)15(22)14(21)11(7-20)28-17/h2-4,6,11,14-18,20-23H,5,7H2,1H3,(H,24,25,26)
Instrument: q exactive focus thermo
Instrument type: LC-ESI-ITFT
Ms type: MS2
Ion mode: POSITIVE
Ionization: ESI
Collision energy: 30
Column name: Acquity CSHC18
Retention time: 5.478 min
Base peak: 479.0783
Precursor m/z: 479.0783
Precursor type: [M+H]+
Precursor intensity: 3076766
m/z	relative intensity
102.051	18
103.9494	19
104.0537	23
105.0497	24
109.0194	25
116.0613	25
117.0256	30
118.054	33
119.0552	38
121.0335	56
128.0563	57
132.0622	58
133.0399	58
136.0419	61
142.9531	62
143.0728	64
144.0637	67
145.0399	88
147.0565	91
148.0625	104
149.0327	127
158.076	147
161.0876	148
164.0291	197
176.0564	215
185.0557	223
188.0281	346
192.0569	374
241.0739	424
247.0537	578
259.0802	999
