Mass spectrum: ISOPENTENYL PYROPHOSPHATE; LC-ESI-QTOF; MS2; CE: 40;  [M-H]-
Name: ISOPENTENYL PYROPHOSPHATE
Class: NA
Formula: C5H12O7P2
Exact mass: 246.00583
SMILES: CC(=C)CCOP(O)(=O)OP(O)(O)=O
InChI: InChI=1S/C5H12O7P2/c1-5(2)3-4-11-14(9,10)12-13(6,7)8/h1,3-4H2,2H3,(H,9,10)(H2,6,7,8)
Instrument: Agilent 6530Â Q-TOF LC/MS
Instrument type: LC-ESI-QTOF
Ms type: MS2
Ion mode: NEGATIVE
Ionization: ESI
Collision energy: 40
Column name: NA
Retention time: 0.200 min
Base peak: 244.99348
Precursor m/z: 244.99348
Precursor type: [M-H]-
Precursor intensity: 179
m/z	relative intensity
78.9726	999
