Mass spectrum: Lyso PAF (from Heart PC); ESI-TOF; MS2; CE: 6.0000000;  [M+H]+
Name: Lyso PAF (from Heart PC)
Class: NA
Formula: C24H52NO6P
Exact mass: 481.35323
SMILES: [H]OC([H])(C([H])([H])OC([H])([H])C([H])([H])C([H])([H])C([H])([H])C([H])([H])C([H])([H])C([H])([H])C([H])([H])C([H])([H])C([H])([H])C([H])([H])C([H])([H])C([H])([H])C([H])([H])C([H])([H])C([H])([H])[H])C([H])([H])OP(=O)([O-])OC([H])([H])C([H])([H])[N+](C([H])([H])[H])(C([H])([H])[H])C([H])([H])[H]
InChI: InChI=1S/C24H52NO6P/c1-5-6-7-8-9-10-11-12-13-14-15-16-17-18-20-29-22-24(26)23-31-32(27,28)30-21-19-25(2,3)4/h24,26H,5-23H2,1-4H3
Instrument: waters xevo g2 TOF
Instrument type: ESI-TOF
Ms type: MS2
Ion mode: POSITIVE
Ionization: ESI
Collision energy: 6.0000000
Column name: Acquity CSHC18
Retention time: 7.545 min
Base peak: 482.36123
Precursor m/z: 482.36123
Precursor type: [M+H]+
m/z	relative intensity
104.1079	154
148.5327	14
157.5292	16
184.0741	6
232.6453	30
260.6581	81
261.1593	324
261.66	151
262.6546	38
268.1456	12
268.644	85
269.6452	69
270.1472	22
270.6429	29
302.6338	30
312.0296	25
314.0311	28
337.2728	25
347.2072	24
417.2076	31
445.2696	3
464.3491	21
482.3605	141
483.363	999
