Mass spectrum: N-ACETYLGLUTAMATE; LC-ESI-QFT; MS2; CE: 30eV;  [M+H]+
Name: N-ACETYLGLUTAMATE
Class: NA
Formula: C7H11NO5
Exact mass: 189.06372
SMILES: CC(=O)NC(CCC(O)=O)C(O)=O
InChI: InChI=1S/C7H11NO5/c1-4(9)8-5(7(12)13)2-3-6(10)11/h5H,2-3H2,1H3,(H,8,9)(H,10,11)(H,12,13)
Instrument: Q-Exactive Orbitrap, Thermo Scientfic; Ultimate 3000 HPLC, Thermo Scientfic
Instrument type: LC-ESI-QFT
Ms type: MS2
Ion mode: POSITIVE
Ionization: ESI
Collision energy: 30eV
Column name: Acquity CSHC18
Retention time: 0.817 min
Base peak: 190.0710
Precursor m/z: 190.0710
Precursor type: [M+H]+
Precursor intensity: 104
m/z	relative intensity
56.0503	14
67.1754	2
78.7533	2
83.5801	2
84.0451	937
85.0291	4
85.0484	21
96.1178	2
98.0606	5
98.5477	2
102.0556	716
103.059	12
116.2835	3
117.2749	2
126.0555	27
127.0589	2
131.0343	11
131.0478	11
131.0536	151
140.7307	2
144.066	214
145.0694	3
148.0608	999
149.0641	28
172.0609	136
172.1337	16
173.0642	3
174.0226	3
174.1809	2
190.0717	37
