Mass spectrum: 4-AMINOBENZOATE; LC-ESI-QTOF; MS2; CE: 10;  [M+H]+
Name: 4-AMINOBENZOATE
Class: NA
Formula: C7H7NO2
Exact mass: 137.04768
SMILES: NC1=CC=C(C=C1)C(O)=O
InChI: InChI=1S/C7H7NO2/c8-6-3-1-5(2-4-6)7(9)10/h1-4H,8H2,(H,9,10)
Instrument: Agilent 6530Â Q-TOF LC/MS
Instrument type: LC-ESI-QTOF
Ms type: MS2
Ion mode: POSITIVE
Ionization: ESI
Collision energy: 10
Column name: NA
Retention time: 0.200 min
Base peak: 138.05636
Precursor m/z: 138.05636
Precursor type: [M+H]+
Precursor intensity: 17.5
m/z	relative intensity
65.0405	127
67.0548	154
77.0558	230
92.0605	273
93.0641	463
94.0841	754
103.0199	807
120.0705	843
138.086	999
