Mass spectrum: Uvaol; ESI-TOF; MS2; CE: 6.0000000;  [M+H]+
Name: Uvaol
Class: NA
Formula: C30H50O2
Exact mass: 442.38108
SMILES: CC1CCC2(CO)CCC3(C)C(=CCC4C5(C)CCC(O)C(C)(C)C5CCC34C)C2C1C
InChI: InChI=1S/C30H50O2/c1-19-10-15-30(18-31)17-16-28(6)21(25(30)20(19)2)8-9-23-27(5)13-12-24(32)26(3,4)22(27)11-14-29(23,28)7/h8,19-20,22-25,31-32H,9-18H2,1-7H3
Instrument: waters xevo g2 TOF
Instrument type: ESI-TOF
Ms type: MS2
Ion mode: POSITIVE
Ionization: ESI
Collision energy: 6.0000000
Column name: Acquity CSHC18
Retention time: 6.978 min
Base peak: 443.38908
Precursor m/z: 443.38908
Precursor type: [M+H]+
m/z	relative intensity
81.0706	3
95.0861	5
107.086	1
109.1017	6
110.0094	1
111.1172	1
119.0861	1
121.1016	30
122.1051	1
123.1172	5
133.1016	7
135.1173	4
139.1121	3
147.0994	8
148.121	1
149.1329	27
151.1481	2
159.1174	1
161.1328	7
163.1484	42
164.152	1
175.1484	13
177.1642	32
178.1675	2
187.1485	1
189.1641	13
190.1676	1
191.1799	999
192.1832	54
193.1599	5
203.1798	80
204.1832	6
205.1954	23
206.1991	3
207.1747	23
215.1798	17
217.1954	190
218.1988	7
221.1902	59
222.1935	8
229.1954	4
231.2111	10
233.1318	3
234.1939	1
235.206	337
236.2094	56
237.2129	4
245.2269	6
249.2214	7
250.2247	3
263.2371	11
282.1997	1
283.2429	3
297.2748	13
299.2727	1
301.2119	1
311.2738	1
329.2032	12
330.2074	2
359.1563	1
367.283	1
393.3524	2
395.3677	6
396.3714	2
397.3827	20
407.3679	20
408.371	7
411.3635	21
412.3668	6
413.3781	49
414.3815	15
425.4764	311
426.3815	308
427.3846	10
428.389	3
439.358	19
440.3613	13
441.365	1
443.4174	402
444.3923	277
