Mass spectrum: L-kynurenine; LC-ESI-QTOF; MS2; CE: 15.00;  [M+H]+
Name: L-kynurenine
Class: NA
Formula: C10H12N2O3
Exact mass: 208.0848
SMILES: C1=CC=C(C(=C1)C(=O)CC(C(=O)O)N)N
InChI: InChI=1S/C10H12N2O3/c11-7-4-2-1-3-6(7)9(13)5-8(12)10(14)15/h1-4,8H,5,11-12H2,(H,14,15)
Instrument: Bruker MicrOTOF-Q
Instrument type: LC-ESI-QTOF
Ms type: MS2
Ion mode: POSITIVE
Ionization: ESI
Collision energy: 15.00
Column name: Acquity CSHC18
Retention time: NA
Base peak: 209.0921
Precursor m/z: 209.0921
Precursor type: [M+H]+
m/z	relative intensity
117.0544	30
118.0631	33
120.0422	35
132.0426	92
136.074	97
137.0761	124
146.059	195
147.0613	195
150.0539	209
164.0714	220
174.0546	345
175.0576	862
192.0652	999
