Mass spectrum: L-Acetylcarnitine; LC-ESI-ITFT; MS2; CE: 100;  [M+H]+
Name: L-Acetylcarnitine
Class: Lipids and lipid-like molecules; Fatty Acyls; Fatty acid esters
Formula: C9H17NO4
Exact mass: 203.11576
SMILES: CC(=O)O[C@H](CC([O-])=O)C[N+](C)(C)C
InChI: InChI=1S/C9H17NO4/c1-7(11)14-8(5-9(12)13)6-10(2,3)4/h8H,5-6H2,1-4H3/t8-/m1/s1
Instrument: Thermo Scientific Q-Exactive Focus
Instrument type: LC-ESI-ITFT
Ms type: MS2
Ion mode: POSITIVE
Ionization: ESI
Collision energy: 100
Column name: Acquity CSHC18
Retention time: 2.576 min
Base peak: 204.12303
Precursor m/z: 204.12303
Precursor type: [M+H]+
m/z	relative intensity
53.0027	139
58.0657	999
60.9808	65
79.8743	66
101.9407	72
113.0151	68
163.3377	66
163.3414	66
165.8776	64
166.3125	67
