Mass spectrum: Scoparone; LC-ESI-QTOF; MS2; CE: 15.00;  [M+H]+
Name: Scoparone
Class: NA
Formula: C11H10O4
Exact mass: 206.0579
SMILES: COC1=C(C=C2C(=C1)C=CC(=O)O2)OC
InChI: InChI=1S/C11H10O4/c1-13-9-5-7-3-4-11(12)15-8(7)6-10(9)14-2/h3-6H,1-2H3
Instrument: Bruker MicrOTOF-Q
Instrument type: LC-ESI-QTOF
Ms type: MS2
Ion mode: POSITIVE
Ionization: ESI
Collision energy: 15.00
Column name: Acquity CSHC18
Retention time: NA
Base peak: 207.0652
Precursor m/z: 207.0652
Precursor type: [M+H]+
m/z	relative intensity
136.0508	26
146.0357	27
148.0513	29
151.0753	30
152.0781	35
163.0407	39
164.0459	47
174.0316	66
179.0714	161
180.0744	241
191.0352	288
192.0426	300
193.0456	365
207.0707	380
208.0697	999
