Mass spectrum: Nicotinuric acid; LC-ESI-ITFT; MS2; CE: 100;  [M-H]-
Name: Nicotinuric acid
Class: Organic acids and derivatives; Carboxylic acids and derivatives; Amino acids, peptides, and analogues
Formula: C8H8N2O3
Exact mass: 180.05349
SMILES: OC(=O)CNC(=O)C1=CN=CC=C1
InChI: InChI=1S/C8H8N2O3/c11-7(12)5-10-8(13)6-2-1-3-9-4-6/h1-4H,5H2,(H,10,13)(H,11,12)
Instrument: Thermo Scientific Q-Exactive Focus
Instrument type: LC-ESI-ITFT
Ms type: MS2
Ion mode: NEGATIVE
Ionization: ESI
Collision energy: 100
Column name: Acquity CSHC18
Retention time: 2.583 min
Base peak: 179.04622
Precursor m/z: 179.04622
Precursor type: [M-H]-
m/z	relative intensity
65.9764	854
81.3899	835
94.1267	841
101.825	999
112.0761	842
141.9908	967
148.9062	964
149.3629	969
157.0565	934
193.2921	899
