Mass spectrum: Ceratodictyol; LC-ESI-QTOF; MS2; CE: 20-40eV;  [M+H]+
Name: Ceratodictyol
Class: Fatty acid
Formula: C19H38O4
Exact mass: 330.2770
SMILES: CCCCCCCCCCC(C(=C(CCCOCC(CO)O)[H])[H])O
InChI: InChI=1S/C19H38O4/c1-2-3-4-5-6-7-8-10-13-18(21)14-11-9-12-15-23-17-19(22)16-20/h11,14,18-22H,2-10,12-13,15-17H2,1H3
Instrument: Impact II, Bruker; Dionex 3000, Thermo Scientific
Instrument type: LC-ESI-QTOF
Ms type: MS2
Ion mode: POSITIVE
Ionization: ESI
Collision energy: 20-40eV
Column name: Acquity CSHC18
Retention time: 23.678 min
Base peak: 331.2828
Precursor m/z: 331.2828
Precursor type: [M+H]+
Precursor intensity: 4014.62
m/z	relative intensity
95.0846	999
97.0634	247
109.0651	266
109.0996	405
137.1298	266
239.2364	330
313.2731	694
314.273	612
