Mass spectrum: Isoginkgetin; LC-ESI-QFT; MS2; CE: 15,30,45 (NCE);  [2M+H]+
Name: Isoginkgetin
Class: NA
Formula: C32H22O10
Exact mass: 566.1213
SMILES: COC1=CC=C(C=C1)C1=CC(=O)C2=C(O)C=C(O)C(=C2O1)C1=C(OC)C=CC(=C1)C1=CC(=O)C2=C(O)C=C(O)C=C2O1
InChI: InChI=1S/C32H22O10/c1-39-18-6-3-15(4-7-18)26-14-24(38)31-22(36)12-21(35)29(32(31)42-26)19-9-16(5-8-25(19)40-2)27-13-23(37)30-20(34)10-17(33)11-28(30)41-27/h3-14,33-36H,1-2H3
Instrument: QE Focus, Thermo Scientfic; UPLC I-Class, Waters
Instrument type: LC-ESI-QFT
Ms type: MS2
Ion mode: POSITIVE
Ionization: ESI
Collision energy: 15,30,45 (NCE)
Column name: Acquity CSHC18
Retention time: 3.723 min
Base peak: 1133.2500
Precursor m/z: 1133.2500
Precursor type: [2M+H]+
Precursor intensity: 3119937
m/z	relative intensity
103.1066	2
121.0283	2
133.0649	3
135.044	174
150.0668	2
153.018	10
159.0439	4
161.0759	2
166.2571	2
283.0602	4
297.0754	9
321.0769	4
325.0692	2
382.5661	2
385.0336	2
402.0344	2
403.0439	4
415.1173	17
417.062	3
435.07	14
466.4968	1
521.0875	8
525.1122	3
535.102	64
552.102	8
554.4775	2
567.1278	999
577.9383	2
697.5533	2
1013.4492	2
