Mass spectrum: artemisinin; LC-ESI-QTOF; MS2; CE: 31.31;  [2M+H]+
Name: artemisinin
Class: NA
Formula: C15H22O5
Exact mass: 282.1467
SMILES: CC1CCC2C(C(=O)OC3C24C1CCC(O3)(OO4)C)C
InChI: InChI=1S/C15H22O5/c1-8-4-5-11-9(2)12(16)17-13-15(11)10(8)6-7-14(3,18-13)19-20-15/h8-11,13H,4-7H2,1-3H3
Instrument: Bruker MicrOTOF-Q
Instrument type: LC-ESI-QTOF
Ms type: MS2
Ion mode: POSITIVE
Ionization: ESI
Collision energy: 31.31
Column name: Acquity CSHC18
Retention time: NA
Base peak: 565.3007
Precursor m/z: 565.3007
Precursor type: [2M+H]+
m/z	relative intensity
121.0839	751
123.0969	871
147.0968	999
