Mass spectrum: 3',5'-Dimethoxy-4'-hydroxyacetophenone; LC-ESI-QTOF; MS2; CE: 50eV;  [M+H]+
Name: 3',5'-Dimethoxy-4'-hydroxyacetophenone
Class: Acetophenone
Formula: C10H12O4
Exact mass: 196.0736
SMILES: CC(=O)C1=CC(=C(C(=C1)OC)O)OC
InChI: InChI=1S/C10H12O4/c1-6(11)7-4-8(13-2)10(12)9(5-7)14-3/h4-5,12H,1-3H3
Instrument: TIMS-TOF Pro, Bruker Daltonik; Elute UHPLC System, Bruker Daltonik
Instrument type: LC-ESI-QTOF
Ms type: MS2
Ion mode: POSITIVE
Ionization: ESI
Collision energy: 50eV
Column name: Acquity CSHC18
Retention time: 5.427 min
Base peak: 197.0795
Precursor m/z: 197.0795
Precursor type: [M+H]+
Precursor intensity: 12418.88
m/z	relative intensity
38.0077	37
43.0183	106
52.0307	63
82.0412	65
95.0527	66
118.9265	30
123.0449	20
140.0469	999
153.0547	43
155.0733	86
182.0467	68
