Mass spectrum: Nicotinic acid; LC-ESI-ITFT; MS2; CE: 100;  [M-H]-
Name: Nicotinic acid
Class: Organoheterocyclic compounds; Pyridines and derivatives; Pyridinecarboxylic acids and derivatives
Formula: C6H5NO2
Exact mass: 123.03203
SMILES: OC(=O)C1=CN=CC=C1
InChI: InChI=1S/C6H5NO2/c8-6(9)5-2-1-3-7-4-5/h1-4H,(H,8,9)
Instrument: Thermo Scientific Q-Exactive Focus
Instrument type: LC-ESI-ITFT
Ms type: MS2
Ion mode: NEGATIVE
Ionization: ESI
Collision energy: 100
Column name: Acquity CSHC18
Retention time: 2.582 min
Base peak: 122.02475
Precursor m/z: 122.02475
Precursor type: [M-H]-
m/z	relative intensity
56.9582	643
66.0736	598
76.3612	699
77.1987	607
92.5137	999
93.0194	639
107.1751	618
123.9655	592
135.6227	604
138.336	626
