Mass spectrum: Quinolinic acid; LC-ESI-ITFT; MS2; CE: 10;  [M-H]-
Name: Quinolinic acid
Class: Organoheterocyclic compounds; Pyridines and derivatives; Pyridinecarboxylic acids and derivatives
Formula: C7H5NO4
Exact mass: 167.02186
SMILES: OC(=O)C1=CC=CN=C1C(O)=O
InChI: InChI=1S/C7H5NO4/c9-6(10)4-2-1-3-8-5(4)7(11)12/h1-3H,(H,9,10)(H,11,12)
Instrument: Thermo Scientific Q-Exactive Focus
Instrument type: LC-ESI-ITFT
Ms type: MS2
Ion mode: NEGATIVE
Ionization: ESI
Collision energy: 10
Column name: Acquity CSHC18
Retention time: NA
Base peak: 166.01459
Precursor m/z: 166.01459
Precursor type: [M-H]-
m/z	relative intensity
66.8984	2
78.0337	14
83.0719	1
88.3329	1
94.0286	77
114.449	2
122.0236	999
144.1647	2
166.0136	68
169.8245	2
