Mass spectrum: N-Acetyl-D-glucosamine; LC-ESI-QTOF; MS2; CE: 100;  [M-H]-
Name: N-Acetyl-D-glucosamine
Class: NA
Formula: C8H15NO6
Exact mass: 221.08994
SMILES: CC(=O)N[C@@H]1[C@@H](O)[C@H](O)[C@@H](CO)OC1O
InChI: InChI=1S/C8H15NO6/c1-3(11)9-5-7(13)6(12)4(2-10)15-8(5)14/h4-8,10,12-14H,2H2,1H3,(H,9,11)/t4-,5-,6-,7-,8?/m1/s1
Instrument: impact II
Instrument type: LC-ESI-QTOF
Ms type: MS2
Ion mode: NEGATIVE
Ionization: ESI
Collision energy: 100
Column name: Acquity CSHC18
Retention time: 1.810 min
Base peak: 220.08280
Precursor m/z: 220.08280
Precursor type: [M-H]-
m/z	relative intensity
50.0033	999
58.0294	503
59.0133	732
60.9744	571
79.9576	596
