Mass spectrum: Kaempferol; LC-ESI-ITFT; MS2; CE: 0.3;  [M-H]-
Name: Kaempferol
Class: flavonols
Formula: C15H10O6
Exact mass: 286.0477
SMILES: C1=CC(=CC=C1C2=C(C(=O)C3=C(C=C(C=C3O2)O)O)O)O
InChI: InChI=1S/C15H10O6/c16-8-3-1-7(2-4-8)15-14(20)13(19)12-10(18)5-9(17)6-11(12)21-15/h1-6,16-18,20H
Instrument: LTQ-Orbitrap XL hybrid mass spectrometer (Thermo Scientific)
Instrument type: LC-ESI-ITFT
Ms type: MS2
Ion mode: NEGATIVE
Ionization: ESI
Collision energy: 0.3
Column name: Acquity CSHC18
Retention time: 8.576 min
Base peak: 285.0403
Precursor m/z: 285.0403
Precursor type: [M-H]-
Precursor intensity: 23276250
m/z	relative intensity
67.2608	22
78.0716	23
81.0745	27
87.4969	27
91.0421	33
97.0745	30
102.9878	28
107.0138	48
111.9867	27
117.2618	29
128.9018	34
133.4881	34
143.0013	35
144.0609	39
151.0042	360
152.0733	31
153.5747	38
154.0418	51
156.0317	30
158.9084	40
159.8659	36
161.11	29
161.2715	35
161.4455	33
161.9988	30
162.0059	32
163.2281	33
167.0496	42
167.2546	47
169.0656	53
169.7241	33
173.0639	32
178.3593	34
180.622	40
181.8291	31
182.9989	36
183.1532	38
184.0953	37
184.2303	42
184.7828	31
185.0607	105
185.5631	32
187.3907	38
188.1292	38
188.6831	41
190.4158	31
192.7221	36
193.5948	35
202.3783	35
202.5511	38
204.2231	35
205.3507	38
206.919	44
207.2962	43
207.9076	41
213.0551	120
214.0305	47
216.2965	35
216.9943	40
218.6592	44
219.1742	35
219.5255	40
223.5205	45
224.6858	36
226.7643	30
226.9616	35
229.0508	112
231.3011	31
234.0987	43
234.7011	33
236.2464	35
237.2876	48
239.0362	84
241.049	77
243.029	52
247.3408	43
247.9896	38
257.045	141
260.7672	42
262.1535	35
263.6728	36
267.9892	42
269.2631	43
270.7456	40
271.5242	42
271.9375	54
272.8557	39
279.8629	45
281.8664	49
282.3796	38
283.3834	44
285.0402	999
