Mass spectrum: CREATINE; LC-ESI-QFT; MS2; CE: 30eV;  [M+H]+
Name: CREATINE
Class: NA
Formula: C4H9N3O2
Exact mass: 131.06948
SMILES: CN(CC(O)=O)C(N)=N
InChI: InChI=1S/C4H9N3O2/c1-7(4(5)6)2-3(8)9/h2H2,1H3,(H3,5,6)(H,8,9)
Instrument: Q-Exactive Orbitrap, Thermo Scientfic; Ultimate 3000 HPLC, Thermo Scientfic
Instrument type: LC-ESI-QFT
Ms type: MS2
Ion mode: POSITIVE
Ionization: ESI
Collision energy: 30eV
Column name: Acquity CSHC18
Retention time: 0.563 min
Base peak: 132.0768
Precursor m/z: 132.0768
Precursor type: [M+H]+
Precursor intensity: 186
m/z	relative intensity
50.7943	23
51.8186	19
58.0398	22
61.4014	21
61.7577	18
64.0719	28
70.735	26
86.0719	263
87.0559	984
87.9424	32
88.0216	22
88.9877	24
91.0528	32
91.059	544
101.6514	26
108.6055	23
113.9406	22
114.0667	999
115.0507	606
121.3619	25
133.0742	178
133.0804	550
143.7633	22
