Mass spectrum: Glycerol 3-phosphate; LC-ESI-ITFT; MS2; CE: 10;  [M-H]-
Name: Glycerol 3-phosphate
Class: Lipids and lipid-like molecules; Glycerophospholipids; Glycerophosphates
Formula: C3H9O6P
Exact mass: 172.01367
SMILES: OC[C@@H](O)COP(O)(O)=O
InChI: InChI=1S/C3H9O6P/c4-1-3(5)2-9-10(6,7)8/h3-5H,1-2H2,(H2,6,7,8)/t3-/m1/s1
Instrument: Thermo Scientific Q-Exactive Focus
Instrument type: LC-ESI-ITFT
Ms type: MS2
Ion mode: NEGATIVE
Ionization: ESI
Collision energy: 10
Column name: Acquity CSHC18
Retention time: 0.364 min
Base peak: 171.00639
Precursor m/z: 171.00639
Precursor type: [M-H]-
m/z	relative intensity
53.3024	1
78.9578	999
96.9684	59
132.0182	1
152.9948	3
171.0054	311
171.019	4
