Mass spectrum: GUANINE; LC-ESI-QFT; MS2; CE: 30eV;  [M+H]+
Name: GUANINE
Class: NA
Formula: C5H5N5O
Exact mass: 151.04941
SMILES: NC1=NC(=O)C2=C(N1)N=CN2
InChI: InChI=1S/C5H5N5O/c6-5-9-3-2(4(11)10-5)7-1-8-3/h1H,(H4,6,7,8,9,10,11)
Instrument: Q-Exactive Orbitrap, Thermo Scientfic; Ultimate 3000 HPLC, Thermo Scientfic
Instrument type: LC-ESI-QFT
Ms type: MS2
Ion mode: POSITIVE
Ionization: ESI
Collision energy: 30eV
Column name: Acquity CSHC18
Retention time: 0.721 min
Base peak: 152.0567
Precursor m/z: 152.0567
Precursor type: [M+H]+
Precursor intensity: 110
m/z	relative intensity
81.0705	1
107.086	4
109.0514	3
109.0651	1
110.0353	15
121.0287	3
128.0459	13
134.0467	1
135.0252	1
135.0303	17
151.1121	1
152.0569	999
153.0409	78
153.0541	5
153.0602	19
