Mass spectrum: Allantoic acid; ESI-TOF; MS2; CE: 0.6458333;  [M+H]+
Name: Allantoic acid
Class: NA
Formula: C4H8N4O4
Exact mass: 176.05455
SMILES: NC(=O)NC(NC(N)=O)C(O)=O
InChI: InChI=1S/C4H8N4O4/c5-3(11)7-1(2(9)10)8-4(6)12/h1H,(H,9,10)(H3,5,7,11)(H3,6,8,12)
Instrument: waters xevo g2 TOF
Instrument type: ESI-TOF
Ms type: MS2
Ion mode: POSITIVE
Ionization: ESI
Collision energy: 0.6458333
Column name: Acquity CSHC18
Retention time: 0.467 min
Base peak: 177.06255
Precursor m/z: 177.06255
Precursor type: [M+H]+
m/z	relative intensity
74.9535	41
96.9615	1
97.9693	999
98.9626	323
99.9696	269
101.9408	39
102.1286	1
113.9643	1
115.9649	1
115.9671	264
117.0301	1
129.9804	1
130.0091	1
139.9641	1
140.962	1
141.9714	1
142.9648	59
143.9596	1
143.9861	45
177.0628	1
182.998	1
184.9858	1
185.9842	1
188.9612	1
199.0441	39
246.8628	1
258.8864	1
287.8891	1
