Mass spectrum: 17-phenyl trinor Prostaglandin F2-alpha serinol amide; ESI-TOF; MS2; CE: 6.0000000;  [M+H]+
Name: 17-phenyl trinor Prostaglandin F2-alpha serinol amide
Class: NA
Formula: C26H39NO6
Exact mass: 461.27774
SMILES: O[C@H](/C=C/[C@@H]1C(C/C=C\CCCC(N([H])C(CO)CO)=O)[C@@H](O)C[C@H]1O)CCC2=CC=CC=C2
InChI: InChI=1S/C26H39NO6/c28-17-20(18-29)27-26(33)11-7-2-1-6-10-22-23(25(32)16-24(22)31)15-14-21(30)13-12-19-8-4-3-5-9-19/h1,3-6,8-9,14-15,20-25,28-32H,2,7,10-13,16-18H2,(H,27,33)/b6-1-,15-14+/t21-,22?,23+,24-,25+/m0/s1
Instrument: waters xevo g2 TOF
Instrument type: ESI-TOF
Ms type: MS2
Ion mode: POSITIVE
Ionization: ESI
Collision energy: 6.0000000
Column name: Acquity CSHC18
Retention time: 3.032 min
Base peak: 462.28574
Precursor m/z: 462.28574
Precursor type: [M+H]+
m/z	relative intensity
98.9686	2
101.003	5
158.0821	5
162.9738	10
204.1205	4
205.1123	1
219.6016	34
220.1013	11
227.5874	7
232.6081	31
233.122	8
240.5934	4
241.6135	122
242.1164	14
250.62	46
251.1356	13
291.1754	1
317.1895	21
335.2002	3
354.24	3
370.2414	3
372.2524	76
373.2568	18
374.2629	2
382.238	43
383.2401	13
390.2436	24
391.2434	6
400.2495	61
408.2532	537
409.2572	150
410.2601	22
411.2746	1
426.263	399
427.266	114
428.2704	18
429.2723	2
444.2748	999
445.2769	307
446.2794	50
447.288	2
453.1632	16
454.1653	3
462.2865	8
