Mass spectrum: GLUCOSE 1-PHOSPHATE; LC-ESI-QFT; MS2; CE: 30eV;  [M-H]-
Name: GLUCOSE 1-PHOSPHATE
Class: NA
Formula: C6H13O9P
Exact mass: 260.02972
SMILES: OC[C@H]1OC(OP(O)(O)=O)[C@H](O)[C@@H](O)[C@@H]1O
InChI: InChI=1S/C6H13O9P/c7-1-2-3(8)4(9)5(10)6(14-2)15-16(11,12)13/h2-10H,1H2,(H2,11,12,13)/t2-,3-,4+,5-,6?/m1/s1
Instrument: Q-Exactive Orbitrap, Thermo Scientfic; Ultimate 3000 HPLC, Thermo Scientfic
Instrument type: LC-ESI-QFT
Ms type: MS2
Ion mode: NEGATIVE
Ionization: ESI
Collision energy: 30eV
Column name: Acquity CSHC18
Retention time: 0.567 min
Base peak: 259.0224
Precursor m/z: 259.0224
Precursor type: [M-H]-
Precursor intensity: 152
m/z	relative intensity
54.4846	2
58.0779	2
58.9574	15
59.0123	2
62.9623	7
63.9513	2
71.0121	2
96.9585	185
96.968	999
97.9577	2
98.9543	15
102.9472	202
103.9477	3
135.9764	3
138.9694	205
138.9786	514
139.9681	4
139.9727	19
139.9821	3
140.965	19
146.9371	331
147.3474	3
147.9405	2
150.9789	16
162.342	3
168.9799	50
170.9754	4
180.9892	13
186.8642	4
186.872	3
190.9275	13
198.9907	770
199.9946	183
200.9865	94
200.9953	24
204.9897	5
223.0007	4
240.0176	4
241.0112	477
242.0146	14
258.0284	405
259.022	420
259.0322	102
260.023	62
264.8046	2
