Mass spectrum: Guanosine; LC-ESI-QTOF; MS2; CE: 100;  [M+H]+
Name: Guanosine
Class: NA
Formula: C10H13N5O5
Exact mass: 283.09167
SMILES: C1=NC2=C(N1C3C(C(C(O3)CO)O)O)N=C(NC2=O)N
InChI: InChI=1S/C10H13N5O5/c11-10-13-7-4(8(19)14-10)12-2-15(7)9-6(18)5(17)3(1-16)20-9/h2-3,5-6,9,16-18H,1H2,(H3,11,13,14,19)
Instrument: impact II
Instrument type: LC-ESI-QTOF
Ms type: MS2
Ion mode: POSITIVE
Ionization: ESI
Collision energy: 100
Column name: Acquity CSHC18
Retention time: 1.802 min
Base peak: 284.09890
Precursor m/z: 284.09890
Precursor type: [M+H]+
m/z	relative intensity
45.0342	116
53.0141	320
55.0297	999
65.0144	173
68.0252	125
80.0246	187
