Mass spectrum: KYNURENATE; LC-ESI-QTOF; MS2; CE: 40;  [M+H]+
Name: KYNURENATE
Class: NA
Formula: C10H7NO3
Exact mass: 189.04259
SMILES: OC(=O)C1=CC(=O)C2=CC=CC=C2N1
InChI: InChI=1S/C10H7NO3/c12-9-5-8(10(13)14)11-7-4-2-1-3-6(7)9/h1-5H,(H,11,12)(H,13,14)
Instrument: Agilent 6530Â Q-TOF LC/MS
Instrument type: LC-ESI-QTOF
Ms type: MS2
Ion mode: POSITIVE
Ionization: ESI
Collision energy: 40
Column name: NA
Retention time: 0.200 min
Base peak: 190.05039
Precursor m/z: 190.05039
Precursor type: [M+H]+
Precursor intensity: 183.5
m/z	relative intensity
63.0105	56
63.015	125
63.0196	149
63.0241	131
63.0286	106
63.0332	83
63.0378	62
63.0423	50
63.0469	37
63.0514	29
65.028	51
65.0326	80
65.0373	76
65.0419	62
65.0465	50
65.0511	40
65.0558	33
65.0604	26
77.0295	32
77.0346	35
77.0396	29
89.0219	299
89.0273	785
89.0327	999
89.0381	905
89.0435	728
89.0489	559
89.0544	420
89.0597	316
89.0652	248
89.0706	201
89.076	148
89.0814	103
89.0868	75
89.0922	55
89.0976	45
89.103	32
89.1084	23
90.0196	26
90.0251	30
90.0305	23
100.0044	28
100.0101	39
100.0159	39
100.0216	34
100.0273	26
116.0277	108
116.0338	379
116.04	539
116.0462	510
116.0524	413
116.0586	313
116.0647	233
116.0709	174
116.0771	131
116.0833	101
116.0894	76
116.0956	53
116.1018	45
116.108	33
116.1141	25
117.0237	26
117.0299	28
117.0361	23
144.0224	45
144.0292	111
144.0361	139
144.043	127
144.0499	98
144.0567	76
144.0636	59
144.0705	45
144.0774	35
144.0843	29
