Mass spectrum: N,N-DIMETHYL-ARGININE; LC-ESI-QFT; MS2; CE: 30eV;  [M+H]+
Name: N,N-DIMETHYL-ARGININE
Class: NA
Formula: C8H18N4O2
Exact mass: 202.14298
SMILES: CN(C)C(=NCCCC(C(=O)O)N)N
InChI: InChI=1S/C8H18N4O2/c1-12(2)8(10)11-5-3-4-6(9)7(13)14/h6H,3-5,9H2,1-2H3,(H2,10,11)(H,13,14)
Instrument: Q-Exactive Orbitrap, Thermo Scientfic; Ultimate 3000 HPLC, Thermo Scientfic
Instrument type: LC-ESI-QFT
Ms type: MS2
Ion mode: POSITIVE
Ionization: ESI
Collision energy: 30eV
Column name: Acquity CSHC18
Retention time: 0.582 min
Base peak: 203.1503
Precursor m/z: 203.1503
Precursor type: [M+H]+
Precursor intensity: 178
m/z	relative intensity
50.3791	1
50.9413	1
52.3034	1
53.9112	1
56.2143	1
57.0454	2
58.0737	1
58.6291	1
62.2961	1
62.9377	1
62.995	1
69.4865	1
70.0658	359
70.5261	1
71.0499	2
71.0611	176
72.0815	31
72.5099	1
75.2289	1
79.822	1
87.9776	6
88.0876	256
89.1079	2
97.0766	3
105.0042	2
113.0712	1
115.087	250
115.9797	1
116.071	731
117.0743	11
126.1029	35
128.1186	6
133.0974	325
134.1008	2
141.0664	3
142.2353	1
143.0317	1
157.8956	1
158.1291	184
159.1324	2
172.1083	564
173.1115	13
179.076	1
185.1401	3
202.1967	1
203.053	5
203.1506	999
204.1544	30
