Mass spectrum: glucosamine 6-phosphate; LC-ESI-QTOF; MS2; CE: -10, -35, -60V;  [M-H]-
Name: glucosamine 6-phosphate
Class: NA
Formula: C6H14NO8P
Exact mass: 259.0457
SMILES: C(C1C(C(C(C(O1)O)N)O)O)OP(=O)(O)O
InChI: InChI=1S/C6H14NO8P/c7-3-5(9)4(8)2(15-6(3)10)1-14-16(11,12)13/h2-6,8-10H,1,7H2,(H2,11,12,13)
Instrument: TripleToF 5600; Sciex
Instrument type: LC-ESI-QTOF
Ms type: MS2
Ion mode: NEGATIVE
Ionization: ESI
Collision energy: -10, -35, -60V
Column name: Acquity CSHC18
Retention time: 1.501 min
Base peak: 258.0395
Precursor m/z: 258.0395
Precursor type: [M-H]-
Precursor intensity: 11491.06
m/z	relative intensity
72.9978	142
78.9582	793
96.9679	417
196.968	68
198.998	137
240.0293	137
256.025	281
258.0347	999
