Mass spectrum: Shikimic acid; LC-ESI-QTOF; MS2; CE: 30;  [M-H]-
Name: Shikimic acid
Class: NA
Formula: C7H10O5
Exact mass: 174.05282
SMILES: C1C(C(C(C=C1C(=O)O)O)O)O
InChI: InChI=1S/C7H10O5/c8-4-1-3(7(11)12)2-5(9)6(4)10/h1,4-6,8-10H,2H2,(H,11,12)
Instrument: impact II
Instrument type: LC-ESI-QTOF
Ms type: MS2
Ion mode: NEGATIVE
Ionization: ESI
Collision energy: 30
Column name: Acquity CSHC18
Retention time: 1.847 min
Base peak: 173.04550
Precursor m/z: 173.04550
Precursor type: [M-H]-
m/z	relative intensity
71.0143	11
73.0302	10
75.0242	9
81.035	28
82.0382	3
83.0505	34
84.054	4
85.0297	2
91.019	5
93.0348	999
93.0789	2
94.0382	67
96.0215	2
99.0093	2
99.0446	3
108.0221	4
109.0293	13
111.0457	8
131.0836	2
136.9491	3
137.0247	10
