Mass spectrum: N-Arachidonyldopamine; ESI-TOF; MS2; CE: 6.0000000;  [M+H]+
Name: N-Arachidonyldopamine
Class: NA
Formula: C28H41NO3
Exact mass: 439.30864
SMILES: CCCCC/C=C\C/C=C\C/C=C\C/C=C\CCCC(=O)NCCC1=CC(=C(C=C1)O)O
InChI: InChI=1S/C28H41NO3/c1-2-3-4-5-6-7-8-9-10-11-12-13-14-15-16-17-18-19-28(32)29-23-22-25-20-21-26(30)27(31)24-25/h6-7,9-10,12-13,15-16,20-21,24,30-31H,2-5,8,11,14,17-19,22-23H2,1H3,(H,29,32)/b7-6-,10-9-,13-12-,16-15-
Instrument: waters xevo g2 TOF
Instrument type: ESI-TOF
Ms type: MS2
Ion mode: POSITIVE
Ionization: ESI
Collision energy: 6.0000000
Column name: Acquity CSHC18
Retention time: 6.314 min
Base peak: 440.31664
Precursor m/z: 440.31664
Precursor type: [M+H]+
m/z	relative intensity
127.9791	2
137.06	48
138.0634	3
149.0949	1
152.0708	46
153.0744	3
154.0866	50
155.0902	3
160.9907	2
163.1482	1
175.0788	1
177.1637	1
187.1485	1
189.1638	5
191.1796	3
203.1801	16
204.184	3
205.193	1
222.1129	2
236.1287	4
238.6276	10
239.6358	34
240.137	11
245.2264	9
246.2292	1
250.1438	3
259.2428	2
264.1596	2
269.2263	21
270.2311	4
287.2371	91
288.1998	12
290.1757	5
300.1601	2
302.1742	10
304.2274	7
316.2282	9
317.2677	3
328.19	3
330.2055	3
342.2078	3
356.2229	2
358.2366	3
410.3077	3
438.2993	367
439.3043	118
440.3158	999
441.3184	349
