Mass spectrum: C18:1 anandamide; ESI-TOF; MS2; CE: 0.6458333;  [M+H]+
Name: C18:1 anandamide
Class: NA
Formula: C20H39NO2
Exact mass: 325.29808
SMILES: [H]OC([H])([H])C([H])([H])N([H])C(=O)C([H])([H])C([H])([H])C([H])([H])C([H])([H])C([H])([H])C([H])([H])C([H])([H])C([H])=C([H])C([H])([H])C([H])([H])C([H])([H])C([H])([H])C([H])([H])C([H])([H])C([H])([H])C([H])([H])[H]
InChI: InChI=1S/C20H39NO2/c1-2-3-4-5-6-7-8-9-10-11-12-13-14-15-16-17-20(23)21-18-19-22/h9-10,22H,2-8,11-19H2,1H3,(H,21,23)
Instrument: waters xevo g2 TOF
Instrument type: ESI-TOF
Ms type: MS2
Ion mode: POSITIVE
Ionization: ESI
Collision energy: 0.6458333
Column name: Acquity CSHC18
Retention time: 7.636 min
Base peak: 326.30608
Precursor m/z: 326.30608
Precursor type: [M+H]+
m/z	relative intensity
62.0612	426
63.0647	9
67.0553	48
69.0709	132
79.0551	37
81.0705	146
82.073	9
83.0864	182
84.0897	11
85.1013	17
93.0706	101
95.0862	215
96.0885	19
97.1015	170
98.0268	26
99.045	18
100.0076	15
107.0861	98
109.1017	129
111.1167	26
121.1017	193
122.105	19
123.117	38
125.0966	12
135.1179	155
136.1208	12
137.1317	12
149.1325	70
151.1488	12
151.6126	15
163.1477	20
165.1649	8
182.6308	42
183.1312	7
200.021	14
214.0377	16
228.0527	26
247.2417	53
248.2478	8
265.2529	42
308.2951	430
309.2805	580
310.2836	120
321.2105	27
326.3059	999
327.3091	234
