Mass spectrum: Pyroglutamic acid; LC-ESI-ITFT; MS2; CE: 100;  [M+H]+
Name: Pyroglutamic acid
Class: Organic acids and derivatives; Carboxylic acids and derivatives; Amino acids, peptides, and analogues
Formula: C5H7NO3
Exact mass: 129.04259
SMILES: OC(=O)[C@@H]1CCC(=O)N1
InChI: InChI=1S/C5H7NO3/c7-4-2-1-3(6-4)5(8)9/h3H,1-2H2,(H,6,7)(H,8,9)/t3-/m0/s1
Instrument: Thermo Scientific Q-Exactive Focus
Instrument type: LC-ESI-ITFT
Ms type: MS2
Ion mode: POSITIVE
Ionization: ESI
Collision energy: 100
Column name: Acquity CSHC18
Retention time: 2.496 min
Base peak: 130.04987
Precursor m/z: 130.04987
Precursor type: [M+H]+
m/z	relative intensity
53.0028	368
55.935	999
56.5429	178
68.1974	200
76.7902	212
102.8384	194
109.0039	198
124.1041	180
145.6077	189
149.879	181
