Mass spectrum: Glycerol; LC-ESI-ITFT; MS2; CE: 20;  [M-H]-
Name: Glycerol
Class: Organic oxygen compounds; Organooxygen compounds; Carbohydrates and carbohydrate conjugates
Formula: C3H8O3
Exact mass: 92.04734
SMILES: OCC(O)CO
InChI: InChI=1S/C3H8O3/c4-1-3(6)2-5/h3-6H,1-2H2
Instrument: Thermo Scientific Q-Exactive Focus
Instrument type: LC-ESI-ITFT
Ms type: MS2
Ion mode: NEGATIVE
Ionization: ESI
Collision energy: 20
Column name: Acquity CSHC18
Retention time: 0.642 min
Base peak: 91.04007
Precursor m/z: 91.04007
Precursor type: [M-H]-
m/z	relative intensity
69.2965	876
72.472	913
75.4494	999
78.3787	909
84.1329	984
84.2791	896
90.3036	877
90.323	918
104.1837	968
107.5373	894
