Mass spectrum: 15(R)-15-methyl Prostaglandin F2-alpha; ESI-TOF; MS2; CE: 6.0000000;  [M+H]+
Name: 15(R)-15-methyl Prostaglandin F2-alpha
Class: NA
Formula: C21H36O5
Exact mass: 368.25627
SMILES: CCCCCC(C)(C=CC1C(CC(C1CC=CCCCC(=O)O)O)O)O
InChI: InChI=1S/C21H36O5/c1-3-4-9-13-21(2,26)14-12-17-16(18(22)15-19(17)23)10-7-5-6-8-11-20(24)25/h5,7,12,14,16-19,22-23,26H,3-4,6,8-11,13,15H2,1-2H3,(H,24,25)
Instrument: waters xevo g2 TOF
Instrument type: ESI-TOF
Ms type: MS2
Ion mode: POSITIVE
Ionization: ESI
Collision energy: 6.0000000
Column name: Acquity CSHC18
Retention time: 3.733 min
Base peak: 369.26427
Precursor m/z: 369.26427
Precursor type: [M+H]+
m/z	relative intensity
93.0712	1
131.086	7
133.1026	1
149.0961	18
159.1183	1
167.0857	40
175.1293	1
183.1182	3
185.098	21
187.1131	12
189.1638	5
193.1206	6
199.1115	13
203.1078	71
204.1096	7
205.1229	11
213.1291	2
215.1799	3
217.1601	26
218.1276	3
219.1386	19
221.1194	31
222.1281	3
227.1441	3
231.1375	3
235.133	5
237.1576	7
239.1275	6
243.2078	3
253.1956	5
255.211	7
261.2243	7
271.2066	54
272.2079	9
277.2171	48
278.2208	10
279.2305	130
280.2349	14
287.2387	7
289.2178	74
290.2197	8
291.2308	11
297.2222	145
298.2247	26
307.2265	17
315.2325	999
316.235	228
317.2484	55
318.2514	6
331.2256	8
332.1438	31
333.1957	417
334.2469	171
335.2508	27
345.1745	18
351.2532	252
352.2584	59
353.2212	3
361.1479	89
