Mass spectrum: Sugiol; LC-ESI-QFT; MS2; CE: 15,30,45 (NCE);  [M-H]-
Name: Sugiol
Class: NA
Formula: C20H28O2
Exact mass: 300.2089
SMILES: CC(C)C1=CC2=C(C=C1O)C1(C)CCCC(C)(C)C1CC2=O
InChI: InChI=1S/C20H28O2/c1-12(2)13-9-14-15(10-16(13)21)20(5)8-6-7-19(3,4)18(20)11-17(14)22/h9-10,12,18,21H,6-8,11H2,1-5H3
Instrument: QE Focus, Thermo Scientfic; UPLC I-Class, Waters
Instrument type: LC-ESI-QFT
Ms type: MS2
Ion mode: NEGATIVE
Ionization: ESI
Collision energy: 15,30,45 (NCE)
Column name: Acquity CSHC18
Retention time: 4.440 min
Base peak: 299.2018
Precursor m/z: 299.2018
Precursor type: [M-H]-
Precursor intensity: 257141400
m/z	relative intensity
50.9194	755
85.3587	864
183.5429	999
