Mass spectrum: trihydroxycholestanoic acid; ESI-TOF; MS2; CE: 0.6458333;  [M+H]+
Name: trihydroxycholestanoic acid
Class: NA
Formula: C27H46O5
Exact mass: 450.33452
SMILES: [H]OC(=O)C([H])(C([H])([H])[H])C([H])([H])C([H])([H])C([H])([H])C([H])(C([H])([H])[H])C2([H])(C([H])([H])C([H])([H])C3([H])(C4([H])(C([H])(O[H])C([H])([H])C1([H])(C([H])([H])C([H])(O[H])C([H])([H])C([H])([H])C1(C([H])([H])[H])C4([H])(C([H])([H])C([H])(O[H])C23(C([H])([H])[H]))))))
InChI: InChI=1S/C27H46O5/c1-15(6-5-7-16(2)25(31)32)19-8-9-20-24-21(14-23(30)27(19,20)4)26(3)11-10-18(28)12-17(26)13-22(24)29/h15-24,28-30H,5-14H2,1-4H3,(H,31,32)
Instrument: waters xevo g2 TOF
Instrument type: ESI-TOF
Ms type: MS2
Ion mode: POSITIVE
Ionization: ESI
Collision energy: 0.6458333
Column name: Acquity CSHC18
Retention time: 7.282 min
Base peak: 451.34252
Precursor m/z: 451.34252
Precursor type: [M+H]+
m/z	relative intensity
81.0713	26
83.0865	10
91.0556	8
93.0705	26
95.0865	36
97.1018	44
105.0707	43
107.0863	40
109.1022	31
119.0867	51
121.102	25
123.1169	22
124.9919	11
133.1021	51
135.1171	32
143.0877	16
145.1021	122
147.1176	41
149.1328	18
157.1024	28
159.1174	120
160.1219	15
161.1332	50
163.1481	14
171.1173	45
172.1223	7
173.1332	57
175.1484	14
185.1323	32
187.1494	19
189.1642	12
195.1336	19
197.1314	12
199.1482	75
201.1644	39
204.1356	16
209.1067	9
211.1497	8
213.1643	105
214.1676	16
215.1796	22
218.1334	42
227.1595	79
227.6405	19
235.1703	18
236.144	27
236.6452	18
239.1814	16
241.1962	83
242.1985	8
249.1843	9
253.196	44
254.2028	30
255.2114	93
256.2138	12
263.1995	13
267.2119	7
287.2002	29
288.204	7
289.2164	50
301.2177	13
303.2327	33
315.2324	28
316.2364	10
343.2642	7
355.2278	9
379.2999	38
380.3015	9
397.3107	999
398.3139	283
399.3166	42
415.3213	517
416.3245	163
417.328	40
433.3322	7
434.3339	2
451.2291	37
453.2311	21
