Mass spectrum: Epigallocatechin gallate; LC-ESI-QFT; MS2; CE: NCE_15_30_64;  [M-H]-
Name: Epigallocatechin gallate
Class: NA
Formula: C22H18O11
Exact mass: 458.0849
SMILES: C1C(C(OC2=CC(=CC(=C21)O)O)C3=CC(=C(C(=C3)O)O)O)OC(=O)C4=CC(=C(C(=C4)O)O)O
InChI: InChI=1S/C22H18O11/c23-10-5-12(24)11-7-18(33-22(31)9-3-15(27)20(30)16(28)4-9)21(32-17(11)6-10)8-1-13(25)19(29)14(26)2-8/h1-6,18,21,23-30H,7H2
Instrument: Thermo_Qexactive_Plus
Instrument type: LC-ESI-QFT
Ms type: MS2
Ion mode: NEGATIVE
Ionization: ESI
Collision energy: NCE_15_30_64
Column name: Acquity CSHC18
Retention time: 3.688 min
Base peak: 457.0784
Precursor m/z: 457.0784
Precursor type: [M-H]-
Precursor intensity: 367868300
m/z	relative intensity
57.9629	44
70.8219	45
71.022	47
79.8379	48
80.9973	48
88.7866	49
97.7267	50
111.8689	51
125.0236	51
137.0273	52
139.0384	53
139.9989	53
149.0232	58
154.06	59
161.0237	68
165.0182	70
167.0332	86
169.0164	89
170.016	89
179.0343	93
193.0111	103
194.0171	107
203.0337	111
205.0142	122
219.0648	168
221.0451	169
248.4712	174
261.0777	186
275.0552	189
287.0555	201
288.0596	391
305.0682	507
306.0714	671
331.0485	717
332.0511	799
457.0857	999
