Mass spectrum: N-ACETYLLEUCINE; LC-ESI-QTOF; MS2; CE: 10;  [M+H]+
Name: N-ACETYLLEUCINE
Class: NA
Formula: C8H15NO3
Exact mass: 173.10519
SMILES: CC(C)C[C@H](NC(C)=O)C(O)=O
InChI: InChI=1S/C8H15NO3/c1-5(2)4-7(8(11)12)9-6(3)10/h5,7H,4H2,1-3H3,(H,9,10)(H,11,12)/t7-/m0/s1
Instrument: Agilent 6530Â Q-TOF LC/MS
Instrument type: LC-ESI-QTOF
Ms type: MS2
Ion mode: POSITIVE
Ionization: ESI
Collision energy: 10
Column name: NA
Retention time: 0.200 min
Base peak: 174.11264
Precursor m/z: 174.11264
Precursor type: [M+H]+
Precursor intensity: 41.5
m/z	relative intensity
41.0397	29
42.0612	30
43.0519	31
44.0713	33
60.0541	33
69.0792	34
72.0495	35
72.2686	39
73.0673	42
86.683	65
87.5192	72
128.2496	102
128.6085	146
128.7646	150
132.341	458
132.8415	458
132.934	689
156.1088	870
174.1278	999
