Mass spectrum: Pinostilbene; LC-ESI-QTOF; MS2; CE: 15.00;  [M+H]+
Name: Pinostilbene
Class: NA
Formula: C15H14O3
Exact mass: 242.0943
SMILES: COC1=CC(=CC(=C1)O)C=CC2=CC=C(C=C2)O
InChI: InChI=1S/C15H14O3/c1-18-15-9-12(8-14(17)10-15)3-2-11-4-6-13(16)7-5-11/h2-10,16-17H,1H3
Instrument: Bruker MicrOTOF-Q
Instrument type: LC-ESI-QTOF
Ms type: MS2
Ion mode: POSITIVE
Ionization: ESI
Collision energy: 15.00
Column name: Acquity CSHC18
Retention time: NA
Base peak: 243.1016
Precursor m/z: 243.1016
Precursor type: [M+H]+
m/z	relative intensity
119.0466	17
121.0622	18
123.043	18
133.0632	19
135.0435	20
137.0586	21
145.0641	21
149.0591	23
150.0652	23
159.0804	23
165.0694	25
166.0746	26
179.0844	26
181.0638	27
182.0724	32
183.0797	35
184.0852	36
193.0637	39
194.0713	49
197.0951	57
200.0833	59
201.0889	61
207.0782	103
210.0671	108
211.0748	112
212.0819	116
213.0855	120
215.1057	129
225.0908	131
226.0941	143
228.0782	153
229.0802	159
241.0852	178
242.0943	209
243.1017	999
244.1053	17
