Mass spectrum: N-Nonanoyl-L-homoserine lactone; LC-ESI-ITFT; MS2; CE: 10;  [M+H]+
Name: N-Nonanoyl-L-homoserine lactone
Class: NA
Formula: C13H23NO3
Exact mass: 241.16779
SMILES: CCCCCCCCC(=O)N[C@H]1CCOC1=O
InChI: InChI=1S/C13H23NO3/c1-2-3-4-5-6-7-8-12(15)14-11-9-10-17-13(11)16/h11H,2-10H2,1H3,(H,14,15)/t11-/m0/s1
Instrument: Thermo Scientific Q-Exactive Focus
Instrument type: LC-ESI-ITFT
Ms type: MS2
Ion mode: POSITIVE
Ionization: ESI
Collision energy: 10
Column name: Acquity CSHC18
Retention time: 0.351 min
Base peak: 242.17506
Precursor m/z: 242.17506
Precursor type: [M+H]+
m/z	relative intensity
57.0704	230
67.0547	46
71.086	292
74.0604	202
81.0702	140
102.0552	999
123.1169	137
141.1273	991
224.1642	106
242.1747	169
