Mass spectrum: L-Lysine; ESI-TOF; MS2; CE: 6.0000000;  [M+H]+
Name: L-Lysine
Class: NA
Formula: C6H14N2O2
Exact mass: 146.10553
SMILES: NCCCCC(N)C(O)=O
InChI: InChI=1S/C6H14N2O2/c7-4-2-1-3-5(8)6(9)10/h5H,1-4,7-8H2,(H,9,10)
Instrument: waters xevo g2 TOF
Instrument type: ESI-TOF
Ms type: MS2
Ion mode: POSITIVE
Ionization: ESI
Collision energy: 6.0000000
Column name: Acquity CSHC18
Retention time: 0.470 min
Base peak: 147.11353
Precursor m/z: 147.11353
Precursor type: [M+H]+
m/z	relative intensity
84.0817	53
97.9692	63
101.941	13
102.1286	12
111.969	7
112.0765	6
113.0792	4
113.9644	46
113.9645	166
126.9721	30
129.1031	50
130.087	999
131.0902	79
131.951	14
133.9291	6
139.9775	31
140.9953	35
141.9593	466
143.9596	84
145.9559	27
145.9897	1
147.1134	342
148.1161	26
155.979	1
156.0353	11
160.9904	4
161.9707	5
163.0273	1
169.0953	4
174.9554	5
182.9859	48
201.0327	5
230.89	2
246.864	6
247.038	3
258.1688	3
258.1696	4
287.8896	4
302.1429	4
346.1304	6
347.1396	14
349.1374	2
492.2359	20
514.2194	5
