Mass spectrum: methyl 2-acetamido-2-deoxy-?-D-glucopyranoside; ESI-TOF; MS2; CE: 0.6458333;  [M+H]+
Name: methyl 2-acetamido-2-deoxy-?-D-glucopyranoside
Class: NA
Formula: C9H17NO6
Exact mass: 235.10559
SMILES: O=C(N[C@@H]1[C@@H](O)[C@H](O)[C@H](O[C@@H]1OC)CO)C
InChI: InChI=1S/C9H17NO6/c1-4(12)10-6-8(14)7(13)5(3-11)16-9(6)15-2/h5-9,11,13-14H,3H2,1-2H3,(H,10,12)/t5-,6-,7-,8-,9+/m1/s1
Instrument: waters xevo g2 TOF
Instrument type: ESI-TOF
Ms type: MS2
Ion mode: POSITIVE
Ionization: ESI
Collision energy: 0.6458333
Column name: Acquity CSHC18
Retention time: 0.831 min
Base peak: 236.11359
Precursor m/z: 236.11359
Precursor type: [M+H]+
m/z	relative intensity
84.045	50
96.0445	493
96.0446	140
126.054	109
126.055	257
137.5332	2
137.534	2
138.0549	375
138.055	999
139.0569	14
139.058	52
144.0652	71
144.0655	250
146.5394	4
158.047	2
168.0651	45
186.0765	24
187.08	2
195.0661	2
204.0855	45
205.0903	2
236.1123	2
238.9863	69
238.9871	49
242.1194	74
242.1205	94
255.0852	35
255.0867	20
258.0945	612
259.0981	76
260.0998	2
274.0628	21
290.0321	2
303.0026	2
303.0047	2
320.0635	10
320.0651	2
335.03	2
336.0375	2
372.6384	2
373.141	2
373.1424	2
373.6439	2
399.0945	2
399.5968	2
477.2261	2
493.2002	2
493.2005	2
494.2062	2
494.2079	2
524.13	2
525.1374	2
525.139	2
527.1361	2
555.1728	2
