Mass spectrum: Malondialdehyde; LC-ESI-ITFT; MS2; CE: 30;  [M+H]+
Name: Malondialdehyde
Class: Organic oxygen compounds; Organooxygen compounds; Carbonyl compounds
Formula: C3H4O2
Exact mass: 72.02113
SMILES: O=CCC=O
InChI: InChI=1S/C3H4O2/c4-2-1-3-5/h2-3H,1H2
Instrument: Thermo Scientific Q-Exactive Focus
Instrument type: LC-ESI-ITFT
Ms type: MS2
Ion mode: POSITIVE
Ionization: ESI
Collision energy: 30
Column name: Acquity CSHC18
Retention time: 0.914 min
Base peak: 73.02841
Precursor m/z: 73.02841
Precursor type: [M+H]+
m/z	relative intensity
51.0105	741
53.6805	651
62.4841	746
63.611	999
64.4621	704
68.4048	727
73.0289	944
83.2862	679
83.8582	748
85.0098	801
