Mass spectrum: Coniferyl alcohol; LC-ESI-QTOF; MS2; CE: 15.00;  [M-H2O+H]+
Name: Coniferyl alcohol
Class: NA
Formula: C10H12O3
Exact mass: 180.0786
SMILES: COC1=C(C=CC(=C1)C=CCO)O
InChI: InChI=1S/C10H12O3/c1-13-10-7-8(3-2-6-11)4-5-9(10)12/h2-5,7,11-12H,6H2,1H3
Instrument: Bruker MicrOTOF-Q
Instrument type: LC-ESI-QTOF
Ms type: MS2
Ion mode: POSITIVE
Ionization: ESI
Collision energy: 15.00
Column name: Acquity CSHC18
Retention time: NA
Base peak: 163.0754
Precursor m/z: 163.0754
Precursor type: [M-H2O+H]+
m/z	relative intensity
102.0417	7
103.0502	26
104.0549	8
115.0609	3
116.0648	2
117.0533	4
129.1736	3
130.0383	3
130.9429	3
131.0475	999
131.1713	2
131.203	4
131.2442	3
131.3339	5
132.0521	93
132.4306	2
133.06	14
137.0547	4
145.0766	3
147.0434	4
148.051	8
163.0763	40
164.0729	6
