Mass spectrum: 1s-(-)-Verbenone; APCI-ITFT; MS2; CE: CID 40;  [M-H]-
Name: 1s-(-)-Verbenone
Class: NA
Formula: C10H14O
Exact mass: 150.10447
SMILES: CC1=CC(=O)C2CC1C2(C)C
InChI: InChI=1S/C10H14O/c1-6-4-9(11)8-5-7(6)10(8,2)3/h4,7-8H,5H2,1-3H3
Instrument: Orbitrap Elite
Instrument type: APCI-ITFT
Ms type: MS2
Ion mode: NEGATIVE
Ionization: APCI
Collision energy: CID 40
Column name: Acquity CSHC18
Retention time: 0.062 min
Base peak: 149.09750
Precursor m/z: 149.09750
Precursor type: [M-H]-
Precursor intensity: 5649850
m/z	relative intensity
60.2391	3
66.0675	3
71.5982	4
81.0349	39
81.1562	3
87.075	3
92.0505	3
93.0343	33
93.0713	32
94.0428	273
95.0504	56
106.0424	10
107.0501	30
107.087	65
109.066	179
120.0584	97
121.0664	999
121.1025	30
131.0866	309
133.0654	83
134.0745	602
136.7215	3
