Mass spectrum: D-Arginine; ESI-TOF; MS2; CE: 0.6458333;  [M+H]+
Name: D-Arginine
Class: NA
Formula: C6H14N4O2
Exact mass: 174.11168
SMILES: NC(CCCNC(N)=N)C(O)=O
InChI: InChI=1S/C6H14N4O2/c7-4(5(11)12)2-1-3-10-6(8)9/h4H,1-3,7H2,(H,11,12)(H4,8,9,10)
Instrument: waters xevo g2 TOF
Instrument type: ESI-TOF
Ms type: MS2
Ion mode: POSITIVE
Ionization: ESI
Collision energy: 0.6458333
Column name: Acquity CSHC18
Retention time: 0.480 min
Base peak: 175.11968
Precursor m/z: 175.11968
Precursor type: [M+H]+
m/z	relative intensity
60.0568	38
70.066	999
71.0691	47
74.9538	3
95.9733	10
97.0762	13
98.0606	22
102.0908	5
109.9675	2
112.0874	204
113.073	11
114.1038	5
115.0873	17
116.0711	408
117.0744	26
130.098	227
141.0668	20
145.0177	23
157.1089	9
158.0931	10
175.1194	291
176.1218	18
177.1239	1
182.0259	9
184.0399	20
185.0502	2
283.0851	25
285.086	2
342.116	2
343.1186	8
402.1442	12
403.1492	30
404.1524	4
576.2449	2
