Mass spectrum: Kinetin riboside; LC-ESI-QTOF; MS2; CE: -10, -35, -60V;  [M-H]-
Name: Kinetin riboside
Class: NA
Formula: C15H17N5O5
Exact mass: 347.1230
SMILES: C1=COC(=C1)CNC2=C3C(=NC=N2)N(C=N3)C4C(C(C(O4)CO)O)O
InChI: InChI=1S/C15H17N5O5/c21-5-9-11(22)12(23)15(25-9)20-7-19-10-13(17-6-18-14(10)20)16-4-8-2-1-3-24-8/h1-3,6-7,9,11-12,15,21-23H,4-5H2,(H,16,17,18)
Instrument: TripleToF 5600; Sciex
Instrument type: LC-ESI-QTOF
Ms type: MS2
Ion mode: NEGATIVE
Ionization: ESI
Collision energy: -10, -35, -60V
Column name: Acquity CSHC18
Retention time: 8.634 min
Base peak: 346.1173
Precursor m/z: 346.1173
Precursor type: [M-H]-
Precursor intensity: 63584.5
m/z	relative intensity
92.0257	12
106.0306	111
107.036	22
134.0472	130
170.0532	14
214.0739	632
215.0809	80
230.067	15
345.2782	16
346.1049	959
346.1207	999
