Mass spectrum: O-Feruloylgalactaric acid; LC-ESI-QTOF; MS2; CE: 20-40eV;  [M+H]+
Name: O-Feruloylgalactaric acid
Class: Hydroxycinnamic acids and derivatives
Formula: C16H18O11
Exact mass: 386.0849
SMILES: COC=1C=C(C=CC1O)C(=C(C(=O)OC(C(C(C(C(=O)O)(O)[H])(O)[H])(O)[H])(C(=O)O)[H])[H])[H]
InChI: InChI=1S/C16H18O11/c1-26-9-6-7(2-4-8(9)17)3-5-10(18)27-14(16(24)25)12(20)11(19)13(21)15(22)23/h2-6,11-14,17,19-21H,1H3,(H,22,23)(H,24,25)
Instrument: Impact II, Bruker; Dionex 3000, Thermo Scientific
Instrument type: LC-ESI-QTOF
Ms type: MS2
Ion mode: POSITIVE
Ionization: ESI
Collision energy: 20-40eV
Column name: Acquity CSHC18
Retention time: 3.222 min
Base peak: 387.0929
Precursor m/z: 387.0929
Precursor type: [M+H]+
Precursor intensity: 32391.13
m/z	relative intensity
117.033	17
134.0344	19
137.0574	20
145.028	23
146.031	86
149.059	114
177.0546	226
178.058	297
181.05	999
