Mass spectrum: METHIONINE SULFOXIMINE; LC-ESI-QTOF; MS2; CE: 40;  [M+H]+
Name: METHIONINE SULFOXIMINE
Class: NA
Formula: C5H12N2O3S
Exact mass: 180.05686
SMILES: CS(=N)(=O)CCC(N)C(O)=O
InChI: InChI=1S/C5H12N2O3S/c1-11(7,10)3-2-4(6)5(8)9/h4,7H,2-3,6H2,1H3,(H,8,9)
Instrument: Agilent 6530Â Q-TOF LC/MS
Instrument type: LC-ESI-QTOF
Ms type: MS2
Ion mode: POSITIVE
Ionization: ESI
Collision energy: 40
Column name: NA
Retention time: 0.200 min
Base peak: 181.06721
Precursor m/z: 181.06721
Precursor type: [M+H]+
Precursor intensity: 69.5
m/z	relative intensity
41.0342	22
41.0379	20
41.0415	15
44.0389	28
44.0427	82
44.0465	108
44.0504	100
44.0542	82
44.058	64
44.0618	48
44.0656	37
44.0694	29
44.0732	23
44.077	17
46.0194	19
46.0233	44
46.0272	54
46.0311	49
46.035	37
46.0388	30
46.0427	25
46.0466	19
46.9768	16
46.9808	16
56.0332	18
56.0375	249
56.0418	731
56.0461	999
56.0504	927
56.0546	741
56.0589	577
56.0632	450
56.0675	348
56.0718	271
56.0761	207
56.0804	152
56.0847	115
56.089	87
56.0933	65
56.0976	51
56.1018	38
56.1061	30
56.1104	21
62.9755	28
62.98	81
62.9846	139
62.9891	148
62.9937	121
62.9982	94
63.0028	72
63.0073	58
63.0119	49
63.0164	39
63.021	32
63.0255	21
74.0083	20
74.0132	70
74.0182	109
74.0231	112
74.028	95
74.033	75
74.0379	55
74.0428	41
74.0477	30
74.0527	23
74.0576	17
84.0345	15
84.0398	26
84.045	26
84.0503	19
84.0555	15
161.9088	18
161.9161	15
