Mass spectrum: Pipecolic acid; LC-ESI-ITFT; MS2; CE: 60;  [M-H]-
Name: Pipecolic acid
Class: Organic acids and derivatives; Carboxylic acids and derivatives; Amino acids, peptides, and analogues
Formula: C6H11NO2
Exact mass: 129.07898
SMILES: OC(=O)C1CCCCN1
InChI: InChI=1S/C6H11NO2/c8-6(9)5-3-1-2-4-7-5/h5,7H,1-4H2,(H,8,9)
Instrument: Thermo Scientific Q-Exactive Focus
Instrument type: LC-ESI-ITFT
Ms type: MS2
Ion mode: NEGATIVE
Ionization: ESI
Collision energy: 60
Column name: Acquity CSHC18
Retention time: 2.030 min
Base peak: 128.07170
Precursor m/z: 128.07170
Precursor type: [M-H]-
m/z	relative intensity
58.6276	828
61.1427	849
64.2337	852
79.7874	999
86.4749	880
92.1082	879
92.5139	971
111.3662	948
113.4197	829
145.7798	864
