Mass spectrum: L-Cystathionine; LC-ESI-ITFT; MS2; CE: 30;  [M-H]-
Name: L-Cystathionine
Class: Organic acids and derivatives; Carboxylic acids and derivatives; Amino acids, peptides, and analogues
Formula: C7H14N2O4S
Exact mass: 222.06743
SMILES: N[C@@H](CCSC[C@H](N)C(O)=O)C(O)=O
InChI: InChI=1S/C7H14N2O4S/c8-4(6(10)11)1-2-14-3-5(9)7(12)13/h4-5H,1-3,8-9H2,(H,10,11)(H,12,13)/t4-,5-/m0/s1
Instrument: Thermo Scientific Q-Exactive Focus
Instrument type: LC-ESI-ITFT
Ms type: MS2
Ion mode: NEGATIVE
Ionization: ESI
Collision energy: 30
Column name: Acquity CSHC18
Retention time: 0.925 min
Base peak: 221.06015
Precursor m/z: 221.06015
Precursor type: [M-H]-
m/z	relative intensity
63.9612	207
116.7011	102
118.4461	96
120.0093	97
120.0113	999
134.027	379
172.4577	92
175.0873	102
225.7549	93
231.0593	98
