Mass spectrum: INDOLEACETALDEHYDE; LC-ESI-QTOF; MS2; CE: 20;  [M+H]+
Name: INDOLEACETALDEHYDE
Class: NA
Formula: C10H9NO
Exact mass: 159.06841
SMILES: O=CCC1=CNC2=CC=CC=C12
InChI: InChI=1S/C10H9NO/c12-6-5-8-7-11-10-4-2-1-3-9(8)10/h1-4,6-7,11H,5H2
Instrument: Agilent 6530Â Q-TOF LC/MS
Instrument type: LC-ESI-QTOF
Ms type: MS2
Ion mode: POSITIVE
Ionization: ESI
Collision energy: 20
Column name: NA
Retention time: 0.200 min
Base peak: 160.07875
Precursor m/z: 160.07875
Precursor type: [M+H]+
Precursor intensity: 181.5
m/z	relative intensity
43.0355	95
43.0392	95
91.0385	108
91.044	233
91.0494	264
91.0549	222
91.0604	168
91.0658	132
91.0713	103
103.0408	86
103.0466	93
105.0635	91
105.0693	89
115.0411	84
115.0472	121
115.0534	116
115.0595	99
117.0351	145
117.0413	426
117.0475	597
117.0537	575
117.0599	479
117.0661	376
117.0723	285
117.0785	211
117.0847	177
117.0909	141
117.0971	102
118.0416	204
118.0478	574
118.0541	807
118.0603	798
118.0665	681
118.0728	540
118.079	422
118.0852	331
118.0914	245
118.0977	196
118.1039	157
118.1101	120
130.0379	98
130.0444	537
130.051	959
130.0575	999
130.064	838
130.0706	650
130.0771	496
130.0837	393
130.0902	299
130.0967	230
130.1033	177
130.1098	136
130.1163	104
131.0529	122
131.0594	224
131.066	242
131.0725	208
131.0791	171
131.0857	125
131.0922	91
132.0652	194
132.0718	300
132.0783	312
132.0849	263
132.0915	203
132.0981	154
132.1047	119
132.1113	83
