Mass spectrum: 6-phosphogluconic acid; LC-ESI-QTOF; MS2; CE: -10, -35, -60V;  [M-H]-
Name: 6-phosphogluconic acid
Class: NA
Formula: C6H13O10P
Exact mass: 276.0246
SMILES: C(C(C(C(C(C(=O)O)O)O)O)O)OP(=O)(O)O
InChI: InChI=1S/C6H13O10P/c7-2(1-16-17(13,14)15)3(8)4(9)5(10)6(11)12/h2-5,7-10H,1H2,(H,11,12)(H2,13,14,15)
Instrument: TripleToF 5600; Sciex
Instrument type: LC-ESI-QTOF
Ms type: MS2
Ion mode: NEGATIVE
Ionization: ESI
Collision energy: -10, -35, -60V
Column name: Acquity CSHC18
Retention time: 12.426 min
Base peak: 275.0177
Precursor m/z: 275.0177
Precursor type: [M-H]-
Precursor intensity: 72597.81
m/z	relative intensity
71.0137	27
78.9594	999
96.969	290
177.0411	54
256.9992	24
257.006	60
275.0179	421
