Mass spectrum: Kaempferol; LC-ESI-QTOF; MS2; CE: 50eV;  [M+H]+
Name: Kaempferol
Class: Flavonol
Formula: C15H10O6
Exact mass: 286.0477
SMILES: C1=CC(=CC=C1C2=C(C(=O)C3=C(C=C(C=C3O2)O)O)O)O
InChI: InChI=1S/C15H10O6/c16-8-3-1-7(2-4-8)15-14(20)13(19)12-10(18)5-9(17)6-11(12)21-15/h1-6,16-18,20H
Instrument: TIMS-TOF Pro, Bruker Daltonik; Elute UHPLC System, Bruker Daltonik
Instrument type: LC-ESI-QTOF
Ms type: MS2
Ion mode: POSITIVE
Ionization: ESI
Collision energy: 50eV
Column name: Acquity CSHC18
Retention time: 7.473 min
Base peak: 287.0529
Precursor m/z: 287.0529
Precursor type: [M+H]+
Precursor intensity: 310323.1
m/z	relative intensity
40.2072	1
52.0341	1
55.0182	1
65.0365	1
67.018	2
68.9963	10
77.0202	1
77.0383	2
79.0524	3
81.0297	1
91.0537	2
103.0522	2
105.0298	1
107.0492	4
111.0436	2
117.0686	3
121.0276	23
125.0169	1
127.0546	2
129.0691	1
137.0198	1
145.0267	1
147.0456	4
153.0174	23
154.02	3
157.0652	7
161.0611	1
165.0177	8
185.0582	1
213.0536	7
215.0336	1
221.6376	1
229.0133	1
231.066	3
241.7947	2
252.1241	1
259.0537	4
269.0411	1
286.0404	2
286.8486	2
287.0126	11
287.0529	999
287.3298	1
287.5343	10
