Mass spectrum: (E)-Ferulic acid; LC-ESI-QTOF; MS2; CE: 15.00;  [M-H]-
Name: (E)-Ferulic acid
Class: NA
Formula: C10H10O4
Exact mass: 194.0579
SMILES: COC1=C(C=CC(=C1)C=CC(=O)O)O
InChI: InChI=1S/C10H10O4/c1-14-9-6-7(2-4-8(9)11)3-5-10(12)13/h2-6,11H,1H3,(H,12,13)
Instrument: Bruker MicrOTOF-Q
Instrument type: LC-ESI-QTOF
Ms type: MS2
Ion mode: NEGATIVE
Ionization: ESI
Collision energy: 15.00
Column name: Acquity CSHC18
Retention time: NA
Base peak: 193.0506
Precursor m/z: 193.0506
Precursor type: [M-H]-
m/z	relative intensity
46.7103	17
47.9949	12
53.261	13
54.2837	15
54.7941	15
55.9225	14
57.392	13
63.2982	13
64.7704	14
66.1439	15
69.9004	13
70.3638	14
70.957	14
74.8178	13
76.0154	13
80.8265	13
81.4303	14
87.1058	13
100.1595	16
106.0423	82
107.0525	21
108.0208	52
108.9456	21
110.4075	15
111.0085	66
114.2342	13
116.3219	15
117.0321	13
121.0306	154
122.0349	16
123.0607	14
124.9005	15
127.2285	20
128.674	12
132.0226	19
134.049	942
136.1819	19
137.0239	999
138.0259	39
139.0397	166
148.0164	22
149.0613	286
150.0327	200
151.0382	17
153.1679	17
160.0161	17
165.015	37
177.7527	845
179.0297	210
193.0496	93
