Mass spectrum: cis-Aconitic acid; LC-ESI-ITFT; MS2; CE: 100;  [M-H]-
Name: cis-Aconitic acid
Class: Organic acids and derivatives; Carboxylic acids and derivatives; Tricarboxylic acids and derivatives
Formula: C6H6O6
Exact mass: 174.01644
SMILES: OC(=O)C\C(=C\C(O)=O)C(O)=O
InChI: InChI=1S/C6H6O6/c7-4(8)1-3(6(11)12)2-5(9)10/h1H,2H2,(H,7,8)(H,9,10)(H,11,12)/b3-1-
Instrument: Thermo Scientific Q-Exactive Focus
Instrument type: LC-ESI-ITFT
Ms type: MS2
Ion mode: NEGATIVE
Ionization: ESI
Collision energy: 100
Column name: Acquity CSHC18
Retention time: NA
Base peak: 173.00916
Precursor m/z: 173.00916
Precursor type: [M-H]-
m/z	relative intensity
68.9562	901
75.89	958
76.8474	918
93.9485	999
94.7087	963
96.3025	966
105.4173	960
120.4675	975
139.7371	921
181.9739	903
