Mass spectrum: XANTHOSINE-MONOPHOSPHATE; LC-ESI-QFT; MS2; CE: 30eV;  [M-H]-
Name: XANTHOSINE-MONOPHOSPHATE
Class: NA
Formula: C10H13N4O9P
Exact mass: 364.04201
SMILES: C1=NC2=C(N1C3C(C(C(O3)COP(=O)(O)O)O)O)NC(=O)NC2=O
InChI: InChI=1S/C10H13N4O9P/c15-5-3(1-22-24(19,20)21)23-9(6(5)16)14-2-11-4-7(14)12-10(18)13-8(4)17/h2-3,5-6,9,15-16H,1H2,(H2,19,20,21)(H2,12,13,17,18)
Instrument: Q-Exactive Orbitrap, Thermo Scientfic; Ultimate 3000 HPLC, Thermo Scientfic
Instrument type: LC-ESI-QFT
Ms type: MS2
Ion mode: NEGATIVE
Ionization: ESI
Collision energy: 30eV
Column name: Acquity CSHC18
Retention time: 0.687 min
Base peak: 363.0347
Precursor m/z: 363.0347
Precursor type: [M-H]-
Precursor intensity: 152
m/z	relative intensity
52.9336	3
62.9625	3
69.4329	2
78.9574	598
87.3721	2
87.8523	2
96.968	596
98.6069	2
105.1429	2
108.0188	3
114.9476	21
124.2368	3
125.789	3
128.9271	3
130.9428	4
133.1554	2
138.5443	3
150.9789	35
151.0248	694
152.028	25
158.9379	38
172.8622	3
189.4938	4
192.9905	4
193.0358	4
202.9284	35
203.7698	3
203.9287	4
211.0005	999
212.0036	32
283.0677	4
306.8858	14
335.7565	3
363.0349	87
364.039	3
389.3625	3
