Mass spectrum: (E)-Cinnamic acid; LC-ESI-QTOF; MS2; CE: 0.00;  [M+H]+
Name: (E)-Cinnamic acid
Class: NA
Formula: C9H8O2
Exact mass: 148.0524
SMILES: C1=CC=C(C=C1)C=CC(=O)O
InChI: InChI=1S/C9H8O2/c10-9(11)7-6-8-4-2-1-3-5-8/h1-7H,(H,10,11)
Instrument: Bruker MicrOTOF-Q
Instrument type: LC-ESI-QTOF
Ms type: MS2
Ion mode: POSITIVE
Ionization: ESI
Collision energy: 0.00
Column name: Acquity CSHC18
Retention time: NA
Base peak: 149.0597
Precursor m/z: 149.0597
Precursor type: [M+H]+
m/z	relative intensity
103.05	9
131.0477	999
131.234	2
131.3828	1
131.4393	1
132.0501	106
133.0545	2
