Mass spectrum: CDP-ETHANOLAMINE; LC-ESI-QFT; MS2; CE: 30eV;  [M+H]+
Name: CDP-ETHANOLAMINE
Class: NA
Formula: C11H20N4O11P2
Exact mass: 446.06038
SMILES: NCCOP(O)(=O)OP(O)(=O)OC[C@H]1O[C@H]([C@H](O)[C@@H]1O)N1C=CC(N)=NC1=O
InChI: InChI=1S/C11H20N4O11P2/c12-2-4-23-27(19,20)26-28(21,22)24-5-6-8(16)9(17)10(25-6)15-3-1-7(13)14-11(15)18/h1,3,6,8-10,16-17H,2,4-5,12H2,(H,19,20)(H,21,22)(H2,13,14,18)/t6-,8-,9-,10-/m1/s1
Instrument: Q-Exactive Orbitrap, Thermo Scientfic; Ultimate 3000 HPLC, Thermo Scientfic
Instrument type: LC-ESI-QFT
Ms type: MS2
Ion mode: POSITIVE
Ionization: ESI
Collision energy: 30eV
Column name: Acquity CSHC18
Retention time: 0.567 min
Base peak: 447.0677
Precursor m/z: 447.0677
Precursor type: [M+H]+
Precursor intensity: 114
m/z	relative intensity
50.1199	1
50.6259	1
52.4756	1
57.7718	1
62.5912	1
63.1842	1
63.6968	1
64.5403	1
65.7664	1
66.1915	1
67.0967	1
68.3733	1
71.033	1
71.7663	1
91.0582	2
92.1429	2
97.0291	41
112.0512	999
113.0482	2
113.0545	11
124.0164	9
124.7268	1
124.8266	1
136.0166	2
141.5546	1
220.0377	3
324.0599	14
359.0307	2
462.7219	2
