Mass spectrum: Ginsenoside F2; LC-ESI-QFT; MS2; CE: 15,30,45 (NCE);  [M+Na]+
Name: Ginsenoside F2
Class: NA
Formula: C42H72O13
Exact mass: 784.4973
SMILES: CC(C)=CCCC(C)(OC1OC(CO)C(O)C(O)C1O)C1CCC2(C)C1C(O)CC1C3(C)CCC(OC4OC(CO)C(O)C(O)C4O)C(C)(C)C3CCC21C
InChI: InChI=1S/C42H72O13/c1-21(2)10-9-14-42(8,55-37-35(51)33(49)31(47)25(20-44)53-37)22-11-16-41(7)29(22)23(45)18-27-39(5)15-13-28(38(3,4)26(39)12-17-40(27,41)6)54-36-34(50)32(48)30(46)24(19-43)52-36/h10,22-37,43-51H,9,11-20H2,1-8H3
Instrument: QE Focus, Thermo Scientfic; UPLC I-Class, Waters
Instrument type: LC-ESI-QFT
Ms type: MS2
Ion mode: POSITIVE
Ionization: ESI
Collision energy: 15,30,45 (NCE)
Column name: Acquity CSHC18
Retention time: 3.621 min
Base peak: 807.4872
Precursor m/z: 807.4872
Precursor type: [M+Na]+
Precursor intensity: 14629260
m/z	relative intensity
64.1072	5
72.3808	4
76.7087	5
100.2139	4
137.4326	4
200.8516	4
203.0528	319
214.5707	5
259.8779	5
334.3028	5
344.1918	5
547.1345	5
627.4241	462
807.4872	999
