Mass spectrum: ALLOTHREONINE; LC-ESI-QTOF; MS2; CE: 40;  [M+H]+
Name: ALLOTHREONINE
Class: NA
Formula: C4H9NO3
Exact mass: 119.05824
SMILES: C[C@H](O)[C@H](N)C(O)=O
InChI: InChI=1S/C4H9NO3/c1-2(6)3(5)4(7)8/h2-3,6H,5H2,1H3,(H,7,8)/t2-,3-/m0/s1
Instrument: Agilent 6530Â Q-TOF LC/MS
Instrument type: LC-ESI-QTOF
Ms type: MS2
Ion mode: POSITIVE
Ionization: ESI
Collision energy: 40
Column name: NA
Retention time: 0.200 min
Base peak: 120.06824
Precursor m/z: 120.06824
Precursor type: [M+H]+
Precursor intensity: 41.5
m/z	relative intensity
40.0085	239
40.0121	729
40.0157	999
40.0194	934
40.023	750
40.0266	570
40.0302	438
40.0338	325
40.0375	258
40.0411	199
40.0447	152
40.0484	120
40.052	91
52.0104	156
52.0145	250
52.0186	261
52.0228	214
52.0269	158
52.031	118
52.0352	93
56.0453	95
67.0169	184
67.0216	383
67.0263	474
67.031	444
67.0357	363
67.0404	284
67.0451	215
67.0498	156
67.0544	131
67.0591	106
