Mass spectrum: Miltirone; LC-ESI-QFT; MS2; CE: 15,30,45 (NCE);  [M+K]+
Name: Miltirone
Class: NA
Formula: C19H22O2
Exact mass: 282.1620
SMILES: CC(C)C1=CC2=C(C(=O)C1=O)C1=C(C=C2)C(C)(C)CCC1
InChI: InChI=1S/C19H22O2/c1-11(2)14-10-12-7-8-15-13(6-5-9-19(15,3)4)16(12)18(21)17(14)20/h7-8,10-11H,5-6,9H2,1-4H3
Instrument: QE Focus, Thermo Scientfic; UPLC I-Class, Waters
Instrument type: LC-ESI-QFT
Ms type: MS2
Ion mode: POSITIVE
Ionization: ESI
Collision energy: 15,30,45 (NCE)
Column name: Acquity CSHC18
Retention time: 5.079 min
Base peak: 321.1250
Precursor m/z: 321.1250
Precursor type: [M+K]+
Precursor intensity: 18725710
m/z	relative intensity
54.2794	9
60.304	9
69.5569	8
73.3716	8
80.335	8
85.5014	9
97.0399	9
138.3767	11
145.3753	10
150.0278	9
276.9498	9
321.125	999
