Mass spectrum: Leptocarpin; LC-ESI-ITFT; MS2; CE: 50eV;  [M+H]+
Name: Leptocarpin
Class: Sesquiterpenelactone; Heliangolide
Formula: C20H28O7
Exact mass: 380.1835
SMILES: CC(CC)C(=O)O[C@@H]2C[C@@]3(C)O[C@@H]3C[C@H](O)C(CO)=C[C@@H]1OC(=O)C(=C)[C@@H]12
InChI: InChI=1S/C20H28O7/c1-5-10(2)18(23)26-15-8-20(4)16(27-20)7-13(22)12(9-21)6-14-17(15)11(3)19(24)25-14/h6,10,13-17,21-22H,3,5,7-9H2,1-2,4H3/t10?,13-,14-,15+,16+,17-,20+/m0/s1
Instrument: Q Exactive Plus, ThermoFisher Scientific
Instrument type: LC-ESI-ITFT
Ms type: MS2
Ion mode: POSITIVE
Ionization: ESI
Collision energy: 50eV
Column name: Acquity CSHC18
Retention time: 5.397 min
Base peak: 381.1903
Precursor m/z: 381.1903
Precursor type: [M+H]+
Precursor intensity: 2120388000
m/z	relative intensity
57.0707	265
68.8925	438
70.4489	57
78.3221	62
95.05	394
97.4417	76
99.0449	90
99.9571	68
110.271	72
117.0707	151
122.7164	62
145.0649	106
147.0436	74
147.0792	76
149.0598	61
150.5658	66
152.7105	61
161.06	80
163.0755	72
165.0548	127
169.1018	99
171.0794	98
171.1176	143
179.0721	76
187.1104	108
197.0955	551
199.1114	340
201.0899	112
215.1069	494
217.0873	551
225.0895	344
243.1006	999
253.0026	72
261.1125	249
289.8309	71
297.1357	152
381.1943	99
