Mass spectrum: 11-deoxy Prostaglandin F2-alpha; ESI-TOF; MS2; CE: 6.0000000;  [M+H]+
Name: 11-deoxy Prostaglandin F2-alpha
Class: NA
Formula: C20H34O4
Exact mass: 338.24571
SMILES: O[C@@H]1[C@H](C/C=C\CCCC(O)=O)[C@@H](/C=C/[C@@H](O)CCCCC)CC1
InChI: InChI=1S/C20H34O4/c1-2-3-6-9-17(21)14-12-16-13-15-19(22)18(16)10-7-4-5-8-11-20(23)24/h4,7,12,14,16-19,21-22H,2-3,5-6,8-11,13,15H2,1H3,(H,23,24)/b7-4-,14-12+/t16-,17-,18+,19-/m0/s1
Instrument: waters xevo g2 TOF
Instrument type: ESI-TOF
Ms type: MS2
Ion mode: POSITIVE
Ionization: ESI
Collision energy: 6.0000000
Column name: Acquity CSHC18
Retention time: 4.013 min
Base peak: 339.25371
Precursor m/z: 339.25371
Precursor type: [M+H]+
m/z	relative intensity
119.0865	3
175.1477	5
183.1173	3
187.1126	22
191.1448	2
202.1298	2
203.1793	4
205.1211	6
207.1261	2
221.1558	2
241.1954	3
243.2089	4
247.168	3
257.1889	7
258.1941	1
267.2107	51
268.2132	7
285.1891	192
286.2243	85
287.2297	6
300.165	1
303.2322	999
304.2357	231
305.2263	30
321.2423	91
322.2458	16
