Mass spectrum: Dehydroascorbic acid; ESI-TOF; MS2; CE: 6.0000000;  [M+H]+
Name: Dehydroascorbic acid
Class: NA
Formula: C6H6O6
Exact mass: 174.01644
SMILES: OCC(O)C1OC(=O)C(=O)C1=O
InChI: InChI=1S/C6H6O6/c7-1-2(8)5-3(9)4(10)6(11)12-5/h2,5,7-8H,1H2
Instrument: waters xevo g2 TOF
Instrument type: ESI-TOF
Ms type: MS2
Ion mode: POSITIVE
Ionization: ESI
Collision energy: 6.0000000
Column name: Acquity CSHC18
Retention time: 0.573 min
Base peak: 175.02444
Precursor m/z: 175.02444
Precursor type: [M+H]+
m/z	relative intensity
115.0397	110
130.0082	90
130.0089	104
140.9964	305
157.0114	78
189.0399	312
236.9402	83
245.0871	53
247.0425	862
261.059	999
