Mass spectrum: chlorogenic acid; LC-ESI-ITFT; MS2; CE: 0.3;  [M-H]-
Name: chlorogenic acid
Class: hydroxycinnamates
Formula: C16H18O9
Exact mass: 354.0951
SMILES: C1C(C(C(CC1(C(=O)O)O)OC(=O)C=CC2=CC(=C(C=C2)O)O)O)O
InChI: InChI=1S/C16H18O9/c17-9-3-1-8(5-10(9)18)2-4-13(20)25-12-7-16(24,15(22)23)6-11(19)14(12)21/h1-5,11-12,14,17-19,21,24H,6-7H2,(H,22,23)
Instrument: LTQ-Orbitrap XL hybrid mass spectrometer (Thermo Scientific)
Instrument type: LC-ESI-ITFT
Ms type: MS2
Ion mode: NEGATIVE
Ionization: ESI
Collision energy: 0.3
Column name: Acquity CSHC18
Retention time: 5.764 min
Base peak: 353.0877
Precursor m/z: 353.0877
Precursor type: [M-H]-
Precursor intensity: 34653400
m/z	relative intensity
85.3666	7
85.9409	6
89.9521	8
90.5448	7
90.789	8
94.699	8
99.7234	7
99.8226	7
101.5516	8
102.5207	7
106.6425	7
114.5487	6
116.2699	7
117.6194	6
119.3092	9
125.1161	6
129.2785	6
132.4609	7
134.0677	5
135.0458	11
145.6383	7
161.0248	26
167.8381	6
173.046	25
179.0354	272
188.779	12
189.1559	9
189.3072	9
189.5334	21
189.9128	40
190.1024	10
190.2926	34
190.2994	6
190.3733	6
190.4449	22
191.0087	11
191.0385	32
191.0565	999
191.0804	20
191.6709	23
191.7482	11
191.8247	31
192.0184	7
192.0596	139
192.2103	35
192.5977	22
192.9857	10
193.3748	7
194.5143	7
196.1104	21
204.5365	6
213.1244	6
220.527	6
224.1141	6
287.2776	19
287.2887	26
287.2971	26
323.7954	10
351.5525	9
353.0877	42
