Mass spectrum: Epicatechin; ESI-TOF; MS2; CE: 0.6458333;  [M+H]+
Name: Epicatechin
Class: NA
Formula: C15H14O6
Exact mass: 290.07904
SMILES: OC1CC2=C(O)C=C(O)C=C2OC1C1=CC(O)=C(O)C=C1
InChI: InChI=1S/C15H14O6/c16-8-4-11(18)9-6-13(20)15(21-14(9)5-8)7-1-2-10(17)12(19)3-7/h1-5,13,15-20H,6H2
Instrument: waters xevo g2 TOF
Instrument type: ESI-TOF
Ms type: MS2
Ion mode: POSITIVE
Ionization: ESI
Collision energy: 0.6458333
Column name: Acquity CSHC18
Retention time: 1.951 min
Base peak: 291.08704
Precursor m/z: 291.08704
Precursor type: [M+H]+
m/z	relative intensity
65.0398	20
67.019	10
68.9982	29
77.0395	96
78.043	3
83.05	53
85.0289	19
89.0397	15
91.0548	171
93.0343	83
95.0499	90
102.0917	11
103.0559	11
105.0336	37
107.0494	111
108.0532	7
111.0447	158
115.0551	33
119.0498	393
120.053	28
121.0472	16
123.0447	27
124.0483	199
127.0395	38
131.0498	24
133.0654	5
134.0682	1
135.0444	34
137.0419	37
139.0395	30
140.043	226
141.0694	5
143.0496	87
145.0468	26
147.0446	999
148.0479	85
149.06	57
150.0635	3
151.0393	126
153.0379	2
154.0576	1
159.0448	16
160.0502	2
161.0602	41
163.0393	664
164.0428	49
165.0552	374
166.059	33
167.034	7
171.0443	9
173.0167	6
175.0128	5
176.0438	1
177.0095	32
179.0333	65
180.0818	11
180.9584	1
182.191	1
185.0604	25
187.0391	19
189.055	100
190.0585	7
191.0706	20
192.9678	13
197.0607	26
199.0387	3
201.0204	7
202.0585	2
203.0713	21
205.0676	60
206.0097	15
207.0658	271
208.0684	34
209.0694	5
213.0672	23
217.0499	7
225.0555	24
227.0699	6
229.0496	75
230.0556	17
231.0657	37
234.0341	1
237.0566	9
238.9637	8
241.0501	42
243.0654	123
244.0678	15
245.0638	21
247.0268	74
248.0312	8
249.0762	25
253.0499	28
255.065	39
257.0991	14
258.1025	1
259.0602	383
260.0648	57
261.1002	7
262.0766	1
269.044	6
270.0236	1
271.0602	182
272.0643	30
273.0758	70
275.0926	10
277.0717	5
283.0607	36
284.0622	6
288.0586	1
289.0717	406
290.0745	58
291.0414	200
292.09	52
