Mass spectrum: Isovanillin; LC-ESI-ITFT; MS2; CE: 45eV;  [M+H]+
Name: Isovanillin
Class: phenolic acid
Formula: C8H8O3
Exact mass: 152.0473
SMILES: COC1=C(C=C(C=C1)C=O)O
InChI: InChI=1S/C8H8O3/c1-11-8-3-2-6(5-9)4-7(8)10/h2-5,10H,1H3
Instrument: LTQ Orbitrap XL, Thermo Scientfic; Dionex Ultimate 300
Instrument type: LC-ESI-ITFT
Ms type: MS2
Ion mode: POSITIVE
Ionization: ESI
Collision energy: 45eV
Column name: Alltima C18
Retention time: 14.36 min
Base peak: 153.0540
Precursor m/z: 153.0540
Precursor type: [M+H]+
m/z	relative intensity
83.0336	45
101.8053	68
106.9129	999
122.8922	272
