Mass spectrum: Malic acid; LC-ESI-ITFT; MS2; CE: 20;  [M-H]-
Name: Malic acid
Class: Organic acids and derivatives; Hydroxy acids and derivatives; Beta hydroxy acids and derivatives
Formula: C4H6O5
Exact mass: 134.02152
SMILES: OC(CC(O)=O)C(O)=O
InChI: InChI=1S/C4H6O5/c5-2(4(8)9)1-3(6)7/h2,5H,1H2,(H,6,7)(H,8,9)
Instrument: Thermo Scientific Q-Exactive Focus
Instrument type: LC-ESI-ITFT
Ms type: MS2
Ion mode: NEGATIVE
Ionization: ESI
Collision energy: 20
Column name: Acquity CSHC18
Retention time: 0.644 min
Base peak: 133.01425
Precursor m/z: 133.01425
Precursor type: [M-H]-
m/z	relative intensity
58.5424	11
59.0127	22
71.0126	999
72.9919	384
89.0232	27
90.3682	11
108.7221	13
115.0025	241
132.8667	12
144.2558	11
