Mass spectrum: Reserpine; LC-ESI-QTOF; MS2; CE: 32.19;  [M+H]+
Name: Reserpine
Class: NA
Formula: C33H40N2O9
Exact mass: 608.2734
SMILES: COC1C(CC2CN3CCC4=C(C3CC2C1C(=O)OC)NC5=C4C=CC(=C5)OC)OC(=O)C6=CC(=C(C(=C6)OC)OC)OC
InChI: InChI=1S/C33H40N2O9/c1-38-19-7-8-20-21-9-10-35-16-18-13-27(44-32(36)17-11-25(39-2)30(41-4)26(12-17)40-3)31(42-5)28(33(37)43-6)22(18)15-24(35)29(21)34-23(20)14-19/h7-8,11-12,14,18,22,24,27-28,31,34H,9-10,13,15-16H2,1-6H3
Instrument: Bruker MicrOTOF-Q
Instrument type: LC-ESI-QTOF
Ms type: MS2
Ion mode: POSITIVE
Ionization: ESI
Collision energy: 32.19
Column name: Acquity CSHC18
Retention time: NA
Base peak: 609.2807
Precursor m/z: 609.2807
Precursor type: [M+H]+
m/z	relative intensity
174.0918	28
175.094	31
192.1021	39
195.0665	51
196.0689	51
200.1068	53
224.1278	54
236.1288	70
336.1601	73
348.1607	74
365.1871	82
366.1878	93
368.1793	111
397.214	164
398.2163	175
436.1983	191
448.1983	255
449.2013	305
577.2548	459
609.2822	651
610.2858	999
