Mass spectrum: Uridine diphosphategalactose; LC-ESI-ITFT; MS2; CE: 20;  [M-H]-
Name: Uridine diphosphategalactose
Class: Nucleosides, nucleotides, and analogues; Pyrimidine nucleotides; Pyrimidine nucleotide sugars
Formula: C15H24N2O17P2
Exact mass: 566.05502
SMILES: OC[C@H]1O[C@H](O[P@@](O)(=O)O[P@@](O)(=O)OC[C@H]2O[C@H]([C@H](O)[C@@H]2O)N2C=CC(=O)NC2=O)[C@H](O)[C@@H](O)[C@H]1O
InChI: InChI=1S/C15H24N2O17P2/c18-3-5-8(20)10(22)12(24)14(32-5)33-36(28,29)34-35(26,27)30-4-6-9(21)11(23)13(31-6)17-2-1-7(19)16-15(17)25/h1-2,5-6,8-14,18,20-24H,3-4H2,(H,26,27)(H,28,29)(H,16,19,25)/t5-,6-,8+,9-,10+,11-,12-,13-,14-/m1/s1
Instrument: Thermo Scientific Q-Exactive Focus
Instrument type: LC-ESI-ITFT
Ms type: MS2
Ion mode: NEGATIVE
Ionization: ESI
Collision energy: 20
Column name: Acquity CSHC18
Retention time: 0.647 min
Base peak: 565.04773
Precursor m/z: 565.04773
Precursor type: [M-H]-
m/z	relative intensity
78.9578	20
96.9684	10
211.0006	8
241.0116	15
305.0176	7
320.9779	26
323.0286	777
384.9838	51
402.9943	32
565.0472	999
