Mass spectrum: S3:19(4,5,10); LC-ESI-QTOF; MS2; CE: -10,-35,-60V;  [M+FA-H]-
Name: S3:19(4,5,10)
Class: acyl sugar
Formula: C31H54O14
Exact mass: 650.3514
SMILES: O[C@@H]1[C@@H](O[C@H]([C@H](OC(CC(C)C)=O)[C@H]1OC(C(C)C)=O)CO)O[C@@]2(CO)O[C@H]([C@@H]([C@H]2OC(CCCCCCCCC)=O)O)CO
InChI: InChI=1S/C31H54O14/c1-6-7-8-9-10-11-12-13-22(35)42-28-24(37)20(15-32)44-31(28,17-34)45-30-25(38)27(43-29(39)19(4)5)26(21(16-33)40-30)41-23(36)14-18(2)3/h18-21,24-28,30,32-34,37-38H,6-17H2,1-5H3/t20-,21-,24-,25-,26-,27-,28+,30-,31+/m0/s1
Instrument: TripleToF5600, Sciex; Acquity, Waters
Instrument type: LC-ESI-QTOF
Ms type: MS2
Ion mode: NEGATIVE
Ionization: ESI
Collision energy: -10,-35,-60V
Column name: Acquity CSHC18
Retention time: 13.270 min
Base peak: 695.3481
Precursor m/z: 695.3481
Precursor type: [M+FA-H]-
Precursor intensity: 1897063
m/z	relative intensity
87.0275	13
101.0442	14
115.0559	15
129.0312	28
478.2047	91
497.2026	273
694.375	296
695.3481	999
