Mass spectrum: 4-Methoxyphenylacetone; LC-ESI-QTOF; MS2; CE: 15.00;  [M+H]+
Name: 4-Methoxyphenylacetone
Class: NA
Formula: C10H12O2
Exact mass: 164.0837
SMILES: CC(=O)CC1=CC=C(C=C1)OC
InChI: InChI=1S/C10H12O2/c1-8(11)7-9-3-5-10(12-2)6-4-9/h3-6H,7H2,1-2H3
Instrument: Bruker MicrOTOF-Q
Instrument type: LC-ESI-QTOF
Ms type: MS2
Ion mode: POSITIVE
Ionization: ESI
Collision energy: 15.00
Column name: Acquity CSHC18
Retention time: NA
Base peak: 165.0910
Precursor m/z: 165.0910
Precursor type: [M+H]+
m/z	relative intensity
102.0116	5
107.0469	25
108.0576	31
115.0522	798
116.058	177
117.0681	187
118.0723	44
119.0838	143
120.0888	21
121.0623	121
122.0698	21
123.0789	456
124.0834	40
127.0553	83
128.0614	159
129.0677	78
130.0731	9
131.0488	555
132.0557	999
133.0605	166
135.0755	12
145.0653	112
146.0694	42
147.0796	905
148.0844	116
150.0687	13
165.0906	146
