Mass spectrum: 1-O-caffeoyl-beta-D-glucose; LC-ESI-QTOF; MS2; CE: 50eV;  [M-H]-
Name: 1-O-caffeoyl-beta-D-glucose
Class: Phenylpropanoid
Formula: C15H18O9
Exact mass: 342.0951
SMILES: C1=CC(=C(C=C1C=CC(=O)OC2C(C(C(C(O2)CO)O)O)O)O)O
InChI: InChI=1S/C15H18O9/c16-6-10-12(20)13(21)14(22)15(23-10)24-11(19)4-2-7-1-3-8(17)9(18)5-7/h1-5,10,12-18,20-22H,6H2
Instrument: TIMS-TOF Pro, Bruker Daltonik; Elute UHPLC System, Bruker Daltonik
Instrument type: LC-ESI-QTOF
Ms type: MS2
Ion mode: NEGATIVE
Ionization: ESI
Collision energy: 50eV
Column name: Acquity CSHC18
Retention time: 3.678 min
Base peak: 341.0815
Precursor m/z: 341.0815
Precursor type: [M-H]-
Precursor intensity: 41259.78
m/z	relative intensity
20.3484	4
22.015	2
41.0015	4
44.9976	4
49.0921	3
49.9465	3
55.0178	20
56.9965	6
59.0127	376
59.1788	2
59.6527	4
60.0064	5
60.9087	10
68.4075	3
71.0126	56
72.014	2
74.3392	5
77.0373	13
81.9957	5
84.0226	2
85.0272	22
85.5529	2
89.0219	12
89.9377	5
95.0105	5
97.361	3
101.0229	9
102.4749	3
104.0242	10
105.0317	33
106.0344	2
109.028	4
110.1537	5
112.015	2
113.8733	2
115.0186	5
116.3822	3
118.5816	3
119.0336	15
119.7486	3
129.6686	2
132.0205	55
132.8588	3
133.0115	829
133.2198	3
133.3536	8
133.4191	3
133.4884	2
133.5631	2
134.0318	64
135.0431	113
135.1641	3
136.0473	4
143.0312	2
149.0579	12
161.0038	999
161.1078	3
161.3254	4
161.5424	2
161.6306	2
162.0258	138
162.1161	3
162.5761	2
163.0389	6
177.0522	14
178.0544	2
179.032	216
179.3126	2
180.0355	17
181.0354	2
193.1917	4
203.0313	24
205.0358	2
207.0637	3
221.0389	7
252.0603	4
281.0616	70
282.067	8
341.0815	206
341.5126	2
