Mass spectrum: naringin; LC-ESI-ITFT; MS2; CE: 0.3;  [M-H]-
Name: naringin
Class: flavanones
Formula: C27H32O14
Exact mass: 580.1792
SMILES: CC1C(C(C(C(O1)OC2C(C(C(OC2OC3=CC(=C4C(=O)CC(OC4=C3)C5=CC=C(C=C5)O)O)CO)O)O)O)O)O
InChI: InChI=1S/C27H32O14/c1-10-20(32)22(34)24(36)26(37-10)41-25-23(35)21(33)18(9-28)40-27(25)38-13-6-14(30)19-15(31)8-16(39-17(19)7-13)11-2-4-12(29)5-3-11/h2-7,10,16,18,20-30,32-36H,8-9H2,1H3
Instrument: LTQ-Orbitrap XL hybrid mass spectrometer (Thermo Scientific)
Instrument type: LC-ESI-ITFT
Ms type: MS2
Ion mode: NEGATIVE
Ionization: ESI
Collision energy: 0.3
Column name: Acquity CSHC18
Retention time: 7.557 min
Base peak: 579.1713
Precursor m/z: 579.1713
Precursor type: [M-H]-
Precursor intensity: 22094030
m/z	relative intensity
148.293	2
167.7465	3
175.0037	5
177.0194	5
179.5269	2
189.0197	3
193.0144	15
194.4902	2
194.5003	2
194.5073	2
194.5166	2
196.0521	3
196.1314	8
196.2111	2
205.0143	19
211.0248	11
217.0142	8
219.0294	2
224.8979	2
235.0247	125
236.0282	11
253.0352	3
271.0468	12
271.061	382
272.0642	47
277.0352	6
287.24	2
287.2533	14
287.2619	3
295.0458	8
295.0608	22
296.0645	2
297.0613	8
313.0564	4
313.0713	161
314.0746	19
323.8073	2
325.0712	10
337.0713	5
339.0716	53
340.0749	7
343.0817	10
351.5422	1
351.5477	2
355.0819	9
357.0822	65
358.0852	9
373.0923	29
374.0951	2
381.0826	4
397.0919	9
399.1082	5
415.1028	5
417.1184	16
433.1348	11
441.1034	50
442.1061	7
450.6724	2
452.0631	2
453.4609	2
454.8645	5
456.2739	4
456.7718	3
456.8393	3
459.0283	3
459.0431	4
459.0491	3
459.0581	4
459.0742	4
459.0878	8
459.1143	999
459.1482	7
459.1613	4
459.1666	3
459.1751	3
459.1839	3
459.1978	2
459.2083	2
459.221	2
459.2301	2
460.1173	150
460.5463	2
473.1292	25
474.133	2
478.4974	3
485.1299	3
531.293	1
579.159	3
