Mass spectrum: Isoeugenol; LC-ESI-QTOF; MS2; CE: 15.00;  [M+H]+
Name: Isoeugenol
Class: NA
Formula: C10H12O2
Exact mass: 164.0837
SMILES: CC=CC1=CC(=C(C=C1)O)OC
InChI: InChI=1S/C10H12O2/c1-3-4-8-5-6-9(11)10(7-8)12-2/h3-7,11H,1-2H3
Instrument: Bruker MicrOTOF-Q
Instrument type: LC-ESI-QTOF
Ms type: MS2
Ion mode: POSITIVE
Ionization: ESI
Collision energy: 15.00
Column name: Acquity CSHC18
Retention time: NA
Base peak: 165.0910
Precursor m/z: 165.0910
Precursor type: [M+H]+
m/z	relative intensity
105.0679	8
110.0379	4
115.0523	12
116.0554	10
121.065	18
122.0347	75
123.0402	9
123.9485	4
124.0519	54
125.0518	4
131.0478	60
132.0663	4
132.9538	4
133.0639	540
133.4125	3
133.6719	4
134.07	26
135.0419	37
136.9365	6
137.0588	999
137.2899	3
137.3912	3
137.5381	3
138.0617	117
147.0746	8
148.022	4
149.0589	63
150.0656	61
151.106	3
164.085	15
165.0955	78
166.0944	5
188.0103	5
189.0133	6
206.3711	4
219.0059	3
336.6484	3
