Mass spectrum: Campesterol; APCI-ITFT; MS2; CE: HCD 90;  [M-H]-
Name: Campesterol
Class: NA
Formula: C28H48O
Exact mass: 400.37052
SMILES: CC(C)C(C)CCC(C)C1CCC2C1(CCC3C2CC=C4C3(CCC(C4)O)C)C
InChI: InChI=1S/C28H48O/c1-18(2)19(3)7-8-20(4)24-11-12-25-23-10-9-21-17-22(29)13-15-27(21,5)26(23)14-16-28(24,25)6/h9,18-20,22-26,29H,7-8,10-17H2,1-6H3
Instrument: Orbitrap Elite
Instrument type: APCI-ITFT
Ms type: MS2
Ion mode: NEGATIVE
Ionization: APCI
Collision energy: HCD 90
Column name: Acquity CSHC18
Retention time: 1.162 min
Base peak: 399.36100
Precursor m/z: 399.36100
Precursor type: [M-H]-
Precursor intensity: 10189.13
m/z	relative intensity
50.2804	839
51.4751	871
51.5626	850
51.7702	807
52.2405	871
53.1872	754
53.2724	754
55.8448	754
57.2273	733
61.9926	765
63.3501	733
63.5524	754
63.7318	712
64.5428	871
64.831	743
65.4265	765
65.4897	892
66.5693	743
66.6344	733
70.166	807
70.4039	797
77.4354	892
77.5343	818
77.6197	807
79.425	871
81.3667	903
82.607	712
85.1349	712
86.7944	828
95.7234	765
96.6438	765
99.1696	860
99.5543	733
100.7526	743
105.1771	775
105.4734	701
108.038	850
117.5146	797
119.986	818
120.0079	860
124.4836	850
125.9792	786
126.4894	765
129.75	839
130.6218	956
130.7029	818
134.8609	999
134.9131	828
136.083	850
140.9401	775
141.7336	765
144.3666	892
150.8973	807
173.3057	743
189.8186	797
194.413	818
200.3829	967
203.814	871
213.294	903
217.1484	743
222.2715	913
222.5979	924
257.8315	807
283.031	903
299.9454	850
317.1891	924
321.2067	956
327.6984	839
343.5005	871
380.62	871
388.0419	988
395.323	967
398.5297	871
