Mass spectrum: 5-Hydroxy-7-methoxychromen-2-one; LC-ESI-ITFT; MS2; CE: 45eV;  [M+H]+
Name: 5-Hydroxy-7-methoxychromen-2-one
Class: coumarin
Formula: C10H8O4
Exact mass: 192.0423
SMILES: COC1=CC(=C2C=CC(=O)OC2=C1)O
InChI: InChI=1S/C10H8O4/c1-13-6-4-8(11)7-2-3-10(12)14-9(7)5-6/h2-5,11H,1H3
Instrument: LTQ Orbitrap XL, Thermo Scientfic; Dionex Ultimate 300
Instrument type: LC-ESI-ITFT
Ms type: MS2
Ion mode: POSITIVE
Ionization: ESI
Collision energy: 45eV
Column name: Alltima C18
Retention time: 19.2 min
Base peak: 193.0484
Precursor m/z: 193.0484
Precursor type: [M+H]+
m/z	relative intensity
88.8993	19
102.8651	73
108.9366	164
120.9777	716
124.936	53
132.8504	999
146.965	349
157.0027	7
162.8684	280
174.0635	95
192.943	414
