Mass spectrum: Palmitoylethanolamide; ESI-TOF; MS2; CE: 6.0000000;  [M+H]+
Name: Palmitoylethanolamide
Class: NA
Formula: C18H37NO2
Exact mass: 299.28243
SMILES: CCCCCCCCCCCCCCCC(=O)NCCO
InChI: InChI=1S/C18H37NO2/c1-2-3-4-5-6-7-8-9-10-11-12-13-14-15-18(21)19-16-17-20/h20H,2-17H2,1H3,(H,19,21)
Instrument: waters xevo g2 TOF
Instrument type: ESI-TOF
Ms type: MS2
Ion mode: POSITIVE
Ionization: ESI
Collision energy: 6.0000000
Column name: Acquity CSHC18
Retention time: 6.440 min
Base peak: 300.29043
Precursor m/z: 300.29043
Precursor type: [M+H]+
m/z	relative intensity
169.623	32
170.1163	6
178.6282	7
185.6362	2
282.2796	4
283.2644	18
284.2673	3
300.2905	999
301.2936	220
302.2981	28
303.3015	2
319.2639	31
319.7657	12
320.2658	2
322.2724	287
323.2756	62
324.2813	7
338.2412	1
384.2429	23
385.2444	5
399.2126	2
400.2158	3
468.9056	24
469.4061	14
469.9076	4
599.5736	21
600.58	9
601.584	1
605.5809	5
606.5882	2
618.5462	7
619.0499	6
619.5517	3
621.5537	175
622.5592	73
623.5571	16
624.5464	2
652.4858	3
653.4901	4
654.4936	1
655.4918	2
683.5256	14
684.5283	5
685.5325	1
