Mass spectrum: 1-stearoyl-2-arachidonoyl-sn-glycero-3-phosphoethanolamine; ESI-TOF; MS2; CE: 6.0000000;  [M+H]+
Name: 1-stearoyl-2-arachidonoyl-sn-glycero-3-phosphoethanolamine
Class: NA
Formula: C43H78NO8P
Exact mass: 767.54651
SMILES: [H]C(=C([H])C([H])([H])C([H])=C([H])C([H])([H])C([H])([H])C([H])([H])C(=O)OC([H])(C([H])([H])OC(=O)C([H])([H])C([H])([H])C([H])([H])C([H])([H])C([H])([H])C([H])([H])C([H])([H])C([H])([H])C([H])([H])C([H])([H])C([H])([H])C([H])([H])C([H])([H])C([H])([H])C([H])([H])C([H])([H])C([H])([H])[H])C([H])([H])OP(=O)([O-])OC([H])([H])C([H])([H])[N+]([H])([H])[H])C([H])([H])C([H])=C([H])C([H])([H])C([H])=C([H])C([H])([H])C([H])([H])C([H])([H])C([H])([H])C([H])([H])[H]
InChI: InChI=1S/C43H78NO8P/c1-3-5-7-9-11-13-15-17-19-20-22-24-26-28-30-32-34-36-43(46)52-41(40-51-53(47,48)50-38-37-44)39-49-42(45)35-33-31-29-27-25-23-21-18-16-14-12-10-8-6-4-2/h11,13,17,19,22,24,28,30,41H,3-10,12,14-16,18,20-21,23,25-27,29,31-40,44H2,1-2H3,(H,47,48)
Instrument: waters xevo g2 TOF
Instrument type: ESI-TOF
Ms type: MS2
Ion mode: POSITIVE
Ionization: ESI
Collision energy: 6.0000000
Column name: Acquity CSHC18
Retention time: 11.396 min
Base peak: 768.55451
Precursor m/z: 768.55451
Precursor type: [M+H]+
m/z	relative intensity
127.9799	7
323.226	3
343.195	4
359.1683	5
392.7624	13
393.2656	3
403.7539	28
404.2557	21
404.7573	6
422.7283	6
423.2279	6
479.1868	7
627.5342	72
628.5377	33
629.5401	7
741.4747	6
746.5695	34
747.5698	10
763.4571	35
764.4592	16
765.4672	5
768.5526	999
769.556	250
