Mass spectrum: N-Carbobenzyloxy-L-valine; LC-ESI-QTOF; MS2; CE: 15;  [M-H]-
Name: N-Carbobenzyloxy-L-valine
Class: NA
Formula: C13H17NO4
Exact mass: 251.1158
SMILES: CC(C)C(C(=O)O)NC(=O)OCC1=CC=CC=C1
InChI: InChI=1S/C13H17NO4/c1-9(2)11(12(15)16)14-13(17)18-8-10-6-4-3-5-7-10/h3-7,9,11H,8H2,1-2H3,(H,14,17)(H,15,16)
Instrument: Bruker MicrOTOF-Q
Instrument type: LC-ESI-QTOF
Ms type: MS2
Ion mode: NEGATIVE
Ionization: ESI
Collision energy: 15
Column name: Acquity CSHC18
Retention time: NA
Base peak: 250.1085
Precursor m/z: 250.1085
Precursor type: [M-H]-
m/z	relative intensity
99.0411	51
142.0502	999
142.2076	4
143.0543	78
