Mass spectrum: PGF1?; ESI-TOF; MS2; CE: 0.6458333;  [M+H]+
Name: PGF1?
Class: NA
Formula: C20H36O5
Exact mass: 356.25627
SMILES: [H]OC(=O)C([H])([H])C([H])([H])C([H])([H])C([H])([H])C([H])([H])C([H])([H])C1([H])(C([H])(O[H])C([H])([H])C([H])(O[H])C1([H])(C([H])=C([H])C([H])(O[H])C([H])([H])C([H])([H])C([H])([H])C([H])([H])C([H])([H])[H]))
InChI: InChI=1S/C20H36O5/c1-2-3-6-9-15(21)12-13-17-16(18(22)14-19(17)23)10-7-4-5-8-11-20(24)25/h12-13,15-19,21-23H,2-11,14H2,1H3,(H,24,25)
Instrument: waters xevo g2 TOF
Instrument type: ESI-TOF
Ms type: MS2
Ion mode: POSITIVE
Ionization: ESI
Collision energy: 0.6458333
Column name: Acquity CSHC18
Retention time: 4.280 min
Base peak: 357.26427
Precursor m/z: 357.26427
Precursor type: [M+H]+
m/z	relative intensity
67.0548	110
79.0547	173
81.0704	218
83.0864	76
91.0547	325
93.0703	352
95.0862	284
105.0697	481
107.0861	232
109.1013	180
117.0703	153
119.086	446
121.1008	176
129.07	96
131.0859	387
133.1013	371
135.1169	132
143.0858	80
145.102	262
147.1168	230
149.1326	77
157.1004	70
159.1173	164
161.1328	185
163.1306	35
171.0559	71
173.1334	160
175.1488	174
177.1474	42
183.1105	55
185.1336	46
187.148	164
189.1634	137
197.133	51
201.1645	78
205.1599	43
211.1481	61
221.1552	39
233.1547	26
235.1687	11
241.1971	23
247.1702	55
257.2266	30
275.2362	20
277.217	57
285.222	125
303.2327	999
304.2361	231
305.2459	106
315.163	57
319.2272	39
320.1444	112
321.2426	116
323.1512	42
331.1314	41
333.1746	891
334.1775	159
337.238	13
341.1776	45
348.1405	257
349.1447	165
359.1886	138
