Mass spectrum: Homovanillic acid; LC-ESI-ITFT; MS2; CE: 100;  [M-H]-
Name: Homovanillic acid
Class: Benzenoids; Phenols; Methoxyphenols
Formula: C9H10O4
Exact mass: 182.05791
SMILES: COC1=CC(CC(O)=O)=CC=C1O
InChI: InChI=1S/C9H10O4/c1-13-8-4-6(5-9(11)12)2-3-7(8)10/h2-4,10H,5H2,1H3,(H,11,12)
Instrument: Thermo Scientific Q-Exactive Focus
Instrument type: LC-ESI-ITFT
Ms type: MS2
Ion mode: NEGATIVE
Ionization: ESI
Collision energy: 100
Column name: Acquity CSHC18
Retention time: NA
Base peak: 181.05063
Precursor m/z: 181.05063
Precursor type: [M-H]-
m/z	relative intensity
56.5374	796
57.3165	689
57.9745	999
72.655	739
98.6318	756
101.0859	716
109.2311	687
126.2671	686
130.9269	730
144.3753	676
