Mass spectrum: ASPARAGINE; LC-ESI-QTOF; MS2; CE: 40;  [M+H]+
Name: ASPARAGINE
Class: NA
Formula: C4H8N2O3
Exact mass: 132.0535
SMILES: N[C@@H](CC(N)=O)C(O)=O
InChI: InChI=1S/C4H8N2O3/c5-2(4(8)9)1-3(6)7/h2H,1,5H2,(H2,6,7)(H,8,9)/t2-/m0/s1
Instrument: Agilent 6530Â Q-TOF LC/MS
Instrument type: LC-ESI-QTOF
Ms type: MS2
Ion mode: POSITIVE
Ionization: ESI
Collision energy: 40
Column name: NA
Retention time: 0.200 min
Base peak: 133.06083
Precursor m/z: 133.06083
Precursor type: [M+H]+
Precursor intensity: 128.5
m/z	relative intensity
43.6671	81
44.0499	414
44.3896	87
45.6994	216
47.9649	40
50.7812	35
55.1558	105
55.1856	29
60.7022	40
62.4492	163
62.4754	52
62.9278	999
62.9839	29
72.1604	93
72.5059	75
74.3698	58
77.0355	455
77.0925	29
77.7918	11
80.2417	75
80.3124	52
88.4015	23
88.8311	128
91.9014	590
92.8984	292
93.3082	29
93.3376	11
93.3653	35
97.5991	257
113.0769	40
113.1028	17
123.1427	35
