Mass spectrum: N-Acetyl-D-Mannosamine; LC-ESI-QTOF; MS2; CE: -10, -35, -60V;  [M-H]-
Name: N-Acetyl-D-Mannosamine
Class: NA
Formula: C8H15NO6
Exact mass: 221.0899
SMILES: CC(=O)NC1C(C(C(OC1O)CO)O)O
InChI: InChI=1S/C8H15NO6/c1-3(11)9-5-7(13)6(12)4(2-10)15-8(5)14/h4-8,10,12-14H,2H2,1H3,(H,9,11)
Instrument: TripleToF 5600; Sciex
Instrument type: LC-ESI-QTOF
Ms type: MS2
Ion mode: NEGATIVE
Ionization: ESI
Collision energy: -10, -35, -60V
Column name: Acquity CSHC18
Retention time: 0.674 min
Base peak: 220.0840
Precursor m/z: 220.0840
Precursor type: [M-H]-
Precursor intensity: 108062.9
m/z	relative intensity
119.0384	855
136.9378	493
141.0131	329
172.9581	493
174.9951	329
189.0671	332
217.0033	999
220.0835	669
