Mass spectrum: 17-phenyl trinor Prostaglandin F2-alpha amide; ESI-TOF; MS2; CE: 6.0000000;  [M+H]+
Name: 17-phenyl trinor Prostaglandin F2-alpha amide
Class: NA
Formula: C23H33NO4
Exact mass: 387.24096
SMILES: O[C@@H]1[C@H](C/C=C\CCCC(N)=O)[C@@H](/C=C/[C@@H](O)CCC2=CC=CC=C2)[C@H](O)C1
InChI: InChI=1S/C23H33NO4/c24-23(28)11-7-2-1-6-10-19-20(22(27)16-21(19)26)15-14-18(25)13-12-17-8-4-3-5-9-17/h1,3-6,8-9,14-15,18-22,25-27H,2,7,10-13,16H2,(H2,24,28)/b6-1-,15-14+/t18-,19+,20+,21-,22+/m0/s1
Instrument: waters xevo g2 TOF
Instrument type: ESI-TOF
Ms type: MS2
Ion mode: POSITIVE
Ionization: ESI
Collision energy: 6.0000000
Column name: Acquity CSHC18
Retention time: 3.116 min
Base peak: 388.24896
Precursor m/z: 388.24896
Precursor type: [M+H]+
m/z	relative intensity
117.0707	1
131.0864	83
143.0851	4
151.1119	17
157.1014	2
161.0975	4
168.1391	153
169.1214	5
173.0967	4
182.5819	92
183.0842	17
187.112	23
188.1134	5
190.1232	5
195.1157	4
195.5918	64
196.103	10
201.1259	6
204.1385	39
204.5979	77
205.1004	12
207.1171	15
211.1486	5
223.146	4
225.1195	1
230.1554	11
233.1334	8
235.1466	3
273.1605	7
275.1803	13
289.1942	13
291.1746	26
292.1754	6
293.1866	3
298.2171	40
299.1791	45
300.1799	11
308.1999	112
309.1847	27
317.1902	267
318.1933	65
319.1944	6
326.2101	43
334.2164	999
335.1626	7
336.2131	48
351.1285	60
352.2251	333
353.228	93
369.1393	3
370.2381	615
371.24	153
372.2435	22
