Mass spectrum: Indole; LC-ESI-ITFT; MS2; CE: 40;  [M+H]+
Name: Indole
Class: Organoheterocyclic compounds; Indoles and derivatives; Indoles
Formula: C8H7N
Exact mass: 117.05785
SMILES: N1C=CC2=C1C=CC=C2
InChI: InChI=1S/C8H7N/c1-2-4-8-7(3-1)5-6-9-8/h1-6,9H
Instrument: Thermo Scientific Q-Exactive Focus
Instrument type: LC-ESI-ITFT
Ms type: MS2
Ion mode: POSITIVE
Ionization: ESI
Collision energy: 40
Column name: Acquity CSHC18
Retention time: 1.172 min
Base peak: 118.06513
Precursor m/z: 118.06513
Precursor type: [M+H]+
m/z	relative intensity
50.0156	9
51.0235	34
53.0027	22
58.0657	288
63.0234	80
65.0391	999
89.0389	132
90.0467	63
91.0545	645
117.0574	85
