Mass spectrum: Monogalactosyldiacylglycerol (Plant); ESI-TOF; MS2; CE: 0.6458333;  [M+H]+
Name: Monogalactosyldiacylglycerol (Plant)
Class: NA
Formula: C43H70O10
Exact mass: 746.49690
SMILES: [H]OC([H])([H])C1([H])(OC([H])(OC([H])([H])C([H])(OC(=O)C([H])([H])C([H])([H])C([H])([H])C([H])([H])C([H])([H])C([H])([H])C([H])([H])C([H])=C([H])C([H])([H])C([H])=C([H])C([H])([H])C([H])=C([H])C([H])([H])C([H])([H])[H])C([H])([H])OC(=O)C([H])([H])C([H])([H])C([H])([H])C([H])([H])C([H])([H])C([H])=C([H])C([H])([H])C([H])=C([H])C([H])([H])C([H])=C([H])C([H])([H])C([H])([H])[H])C([H])(O[H])C([H])(O[H])C1([H])(O[H]))
InChI: InChI=1S/C43H70O10/c1-3-5-7-9-11-13-15-17-18-20-22-24-26-28-30-32-39(46)52-36(35-51-43-42(49)41(48)40(47)37(33-44)53-43)34-50-38(45)31-29-27-25-23-21-19-16-14-12-10-8-6-4-2/h5-8,11-14,17-19,21,36-37,40-44,47-49H,3-4,9-10,15-16,20,22-35H2,1-2H3
Instrument: waters xevo g2 TOF
Instrument type: ESI-TOF
Ms type: MS2
Ion mode: POSITIVE
Ionization: ESI
Collision energy: 0.6458333
Column name: Acquity CSHC18
Retention time: 10.394 min
Base peak: 747.50490
Precursor m/z: 747.50490
Precursor type: [M+H]+
m/z	relative intensity
79.055	26
81.0703	78
91.0398	28
93.0708	63
95.0859	104
105.0705	37
107.0859	60
109.1016	76
119.0861	52
123.1172	45
127.0404	27
131.0855	37
133.1021	79
135.1173	89
145.1021	46
147.117	63
149.1336	54
159.1172	54
161.1332	44
171.1182	19
173.1335	50
185.1318	20
213.1641	35
215.1795	61
231.1755	35
233.1896	50
259.2059	30
261.2204	55
289.1483	387
290.1518	26
305.2106	17
307.2277	240
308.2309	55
309.2427	52
317.18	689
318.1835	139
333.1979	23
335.2595	193
336.262	46
337.2728	32
393.7325	9
469.2804	212
470.2843	53
491.2613	45
493.4038	63
494.4067	21
497.3111	77
511.4151	30
523.2018	30
525.2378	46
526.2438	21
553.2687	119
554.2771	27
567.4417	279
568.446	111
569.4494	20
585.4526	999
586.4564	406
587.4592	96
588.4635	11
729.4955	18
730.4993	7
747.5053	9
748.5116	4
