Mass spectrum: Uridine; LC-ESI-QTOF; MS2; CE: 10;  [M-H]-
Name: Uridine
Class: NA
Formula: C9H12N2O6
Exact mass: 244.0695
SMILES: C1=CN(C(=O)NC1=O)C2C(C(C(O2)CO)O)O
InChI: InChI=1S/C9H12N2O6/c12-3-4-6(14)7(15)8(17-4)11-2-1-5(13)10-9(11)16/h1-2,4,6-8,12,14-15H,3H2,(H,10,13,16)
Instrument: impact II
Instrument type: LC-ESI-QTOF
Ms type: MS2
Ion mode: NEGATIVE
Ionization: ESI
Collision energy: 10
Column name: Acquity CSHC18
Retention time: 1.860 min
Base peak: 243.0617
Precursor m/z: 243.0617
Precursor type: [M-H]-
m/z	relative intensity
82.0298	104
110.0247	999
111.0214	113
140.0351	197
152.0353	263
200.0564	676
243.0622	265
