Mass spectrum: Luteolin; LC-ESI-QTOF; MS2; CE: 50eV;  [M-H]-
Name: Luteolin
Class: Flavone
Formula: C15H10O6
Exact mass: 286.0477
SMILES: C1=CC(=C(C=C1C2=CC(=O)C3=C(C=C(C=C3O2)O)O)O)O
InChI: InChI=1S/C15H10O6/c16-8-4-11(19)15-12(20)6-13(21-14(15)5-8)7-1-2-9(17)10(18)3-7/h1-6,16-19H
Instrument: TIMS-TOF Pro, Bruker Daltonik; Elute UHPLC System, Bruker Daltonik
Instrument type: LC-ESI-QTOF
Ms type: MS2
Ion mode: NEGATIVE
Ionization: ESI
Collision energy: 50eV
Column name: Acquity CSHC18
Retention time: 6.706 min
Base peak: 285.0379
Precursor m/z: 285.0379
Precursor type: [M-H]-
Precursor intensity: 75400.63
m/z	relative intensity
46.7198	6
57.3697	7
64.0252	8
65.0029	100
69.623	9
74.399	7
77.0387	26
79.0038	4
81.0348	10
83.0125	44
102.6234	4
104.0242	11
104.5362	8
105.5154	5
107.0124	50
108.1162	9
115.0152	11
121.0271	18
128.0238	4
131.0476	8
132.0205	169
133.0278	999
133.3536	4
133.4209	6
133.8803	5
134.0317	53
135.0358	5
136.9997	4
143.0482	7
143.6787	7
145.0294	8
147.0434	7
149.0213	8
151.0007	26
155.6295	4
159.0431	4
173.022	4
175.0376	29
175.8918	7
185.0586	4
190.5447	6
199.0318	5
215.0415	5
241.0461	8
244.0345	4
284.998	6
285.235	5
285.3375	5
285.416	4
285.512	9
