Mass spectrum: 2,4-DIHYDROXYPTERIDINE; LC-ESI-QFT; MS2; CE: 30eV;  [M+H]+
Name: 2,4-DIHYDROXYPTERIDINE
Class: NA
Formula: C6H4N4O2
Exact mass: 164.03343
SMILES: C1=CN=C2C(=N1)C(=O)NC(=O)N2
InChI: InChI=1S/C6H4N4O2/c11-5-3-4(8-2-1-7-3)9-6(12)10-5/h1-2H,(H2,8,9,10,11,12)
Instrument: Q-Exactive Orbitrap, Thermo Scientfic; Ultimate 3000 HPLC, Thermo Scientfic
Instrument type: LC-ESI-QFT
Ms type: MS2
Ion mode: POSITIVE
Ionization: ESI
Collision energy: 30eV
Column name: Acquity CSHC18
Retention time: 1.050 min
Base peak: 165.0407
Precursor m/z: 165.0407
Precursor type: [M+H]+
Precursor intensity: 162
m/z	relative intensity
51.3553	3
67.0299	22
69.0092	5
70.0416	5
71.7769	4
79.2418	4
79.4483	3
79.4611	3
79.7913	4
85.0404	55
93.0089	48
94.0406	89
96.0563	274
97.0596	9
112.0511	147
120.0197	24
122.0353	26
138.0302	345
140.0459	71
142.9677	9
148.0148	54
165.6708	5
166.0251	999
166.0378	46
166.0445	261
167.0284	30
179.1987	4
179.6671	4
