Mass spectrum: (22R,25R)-3beta,16beta-Diacetoxy-22,26-acetimino-5alpha-cholestan-20-ol; APCI-ITFT; MS2; CE: 35 CID;  [M+H]+
Name: (22R,25R)-3beta,16beta-Diacetoxy-22,26-acetimino-5alpha-cholestan-20-ol
Class: NA
Formula: C33H53NO6
Exact mass: 559.38729
SMILES: C[C@@H](CN1C(C)=O)CC[C@@H]1[C@](C)(O)[C@H]2[C@@H](OC(C)=O)C[C@@]3([H])[C@]4([H])CC[C@@]5([H])C[C@@H](OC(C)=O)CC[C@]5(C)[C@@]4([H])CC[C@]23C
InChI: InChI=1S/C33H53NO6/c1-19-8-11-29(34(18-19)20(2)35)33(7,38)30-28(40-22(4)37)17-27-25-10-9-23-16-24(39-21(3)36)12-14-31(23,5)26(25)13-15-32(27,30)6/h19,23-30,38H,8-18H2,1-7H3/t19-,23+,24+,25-,26+,27+,28+,29-,30+,31+,32+,33+/m1/s1
Instrument: Orbitrap Elite
Instrument type: APCI-ITFT
Ms type: MS2
Ion mode: POSITIVE
Ionization: APCI
Collision energy: 35 CID
Column name: Acquity CSHC18
Retention time: 0.241 min
Base peak: 560.39370
Precursor m/z: 560.39370
Precursor type: [M+H]+
Precursor intensity: 1515519000
m/z	relative intensity
184.1322	3
482.363	106
500.3683	114
542.3815	999
560.4196	1
