Mass spectrum: delta-12-Prostaglandin D2; ESI-TOF; MS2; CE: 0.6458333;  [M+H]+
Name: delta-12-Prostaglandin D2
Class: NA
Formula: C20H32O5
Exact mass: 352.22497
SMILES: CCCCCC(O)C/C=C1/C(=O)CC(O)C/1C/C=C\CCCC(=O)O
InChI: InChI=1S/C20H32O5/c1-2-3-6-9-15(21)12-13-17-16(18(22)14-19(17)23)10-7-4-5-8-11-20(24)25/h4,7,13,15-16,18,21-22H,2-3,5-6,8-12,14H2,1H3,(H,24,25)/b7-4-,17-13+
Instrument: waters xevo g2 TOF
Instrument type: ESI-TOF
Ms type: MS2
Ion mode: POSITIVE
Ionization: ESI
Collision energy: 0.6458333
Column name: Acquity CSHC18
Retention time: 3.455 min
Base peak: 353.23297
Precursor m/z: 353.23297
Precursor type: [M+H]+
m/z	relative intensity
83.0868	53
91.0545	336
95.0667	170
105.0704	566
107.0863	200
109.0647	172
117.0714	266
119.0867	346
128.0631	113
129.0711	482
131.0873	458
133.0662	362
142.0778	91
143.0875	446
145.103	359
147.1175	149
151.076	104
155.0871	295
157.1021	404
159.0821	309
161.1152	212
165.023	204
169.1018	346
171.1183	331
173.0972	309
175.1117	175
183.1179	265
185.0399	245
187.1113	162
189.1277	241
191.1435	99
197.097	98
199.1127	216
200.1184	29
201.0924	162
203.1071	135
205.1586	46
215.1427	283
217.0763	249
219.1276	28
233.1535	130
255.1756	72
271.2068	181
273.0801	999
274.0866	125
281.1899	291
289.0518	820
291.0911	927
292.0909	135
299.2011	513
300.2059	95
306.0565	251
307.0624	514
308.0681	115
309.0623	253
311.0598	87
317.2112	498
318.214	65
355.1607	71
