Mass spectrum: CYCLIC GMP; LC-ESI-QTOF; MS2; CE: 20;  [M+H]+
Name: CYCLIC GMP
Class: NA
Formula: C10H12N5O7P
Exact mass: 345.0474
SMILES: NC1=NC2=C(N=CN2[C@@H]2O[C@@H]3COP(O)(=O)O[C@H]3[C@H]2O)C(=O)N1
InChI: InChI=1S/C10H12N5O7P/c11-10-13-7-4(8(17)14-10)12-2-15(7)9-5(16)6-3(21-9)1-20-23(18,19)22-6/h2-3,5-6,9,16H,1H2,(H,18,19)(H3,11,13,14,17)/t3-,5-,6-,9-/m1/s1
Instrument: Agilent 6530Â Q-TOF LC/MS
Instrument type: LC-ESI-QTOF
Ms type: MS2
Ion mode: POSITIVE
Ionization: ESI
Collision energy: 20
Column name: NA
Retention time: 0.200 min
Base peak: 346.05434
Precursor m/z: 346.05434
Precursor type: [M+H]+
Precursor intensity: 82.5
m/z	relative intensity
135.0284	13
152.0551	88
346.057	999
