Mass spectrum: trans-Cinnamic acid; LC-ESI-ITFT; MS2; CE: 100;  [M+H]+
Name: trans-Cinnamic acid
Class: Phenylpropanoids and polyketides; Cinnamic acids and derivatives; Cinnamic acids
Formula: C9H8O2
Exact mass: 148.05243
SMILES: OC(=O)\C=C\C1=CC=CC=C1
InChI: InChI=1S/C9H8O2/c10-9(11)7-6-8-4-2-1-3-5-8/h1-7H,(H,10,11)/b7-6+
Instrument: Thermo Scientific Q-Exactive Focus
Instrument type: LC-ESI-ITFT
Ms type: MS2
Ion mode: POSITIVE
Ionization: ESI
Collision energy: 100
Column name: Acquity CSHC18
Retention time: 2.571 min
Base peak: 149.05971
Precursor m/z: 149.05971
Precursor type: [M+H]+
m/z	relative intensity
50.0157	999
51.0236	423
52.0188	27
53.0028	315
61.0078	37
62.0157	36
65.0028	61
66.0106	14
74.0156	135
91.042	29
