Mass spectrum: 2-Deoxy-D-Ribose; ESI-TOF; MS2; CE: 0.6458333;  [M+H]+
Name: 2-Deoxy-D-Ribose
Class: NA
Formula: C5H10O4
Exact mass: 134.05791
SMILES: OC[C@@H]1O[C@H](O)C[C@H]1O
InChI: InChI=1S/C5H10O4/c6-2-4-3(7)1-5(8)9-4/h3-8H,1-2H2/t3-,4+,5+/m1/s1
Instrument: waters xevo g2 TOF
Instrument type: ESI-TOF
Ms type: MS2
Ion mode: POSITIVE
Ionization: ESI
Collision energy: 0.6458333
Column name: Acquity CSHC18
Retention time: 0.545 min
Base peak: 135.06591
Precursor m/z: 135.06591
Precursor type: [M+H]+
m/z	relative intensity
81.0348	624
96.9621	22
97.9701	22
98.9769	743
99.0454	489
113.9412	999
117.0562	22
124.9918	574
139.9578	553
145.0347	22
154.0403	22
157.0484	185
157.9673	22
187.9784	22
189.0748	22
219.019	22
229.9879	22
247.9992	22
273.0964	381
274.015	22
