Mass spectrum: AMINOADIPATE; LC-ESI-QTOF; MS2; CE: 10;  [M+H]+
Name: AMINOADIPATE
Class: NA
Formula: C6H11NO4
Exact mass: 161.0688
SMILES: NC(CCCC(O)=O)C(O)=O
InChI: InChI=1S/C6H11NO4/c7-4(6(10)11)2-1-3-5(8)9/h4H,1-3,7H2,(H,8,9)(H,10,11)
Instrument: Agilent 6530Â Q-TOF LC/MS
Instrument type: LC-ESI-QTOF
Ms type: MS2
Ion mode: POSITIVE
Ionization: ESI
Collision energy: 10
Column name: NA
Retention time: 0.200 min
Base peak: 162.07689
Precursor m/z: 162.07689
Precursor type: [M+H]+
Precursor intensity: 131.5
m/z	relative intensity
47.5273	67
47.5637	7
50.9312	43
55.0164	666
55.0484	330
55.1143	7
56.047	101
56.4828	123
57.2158	19
57.6393	26
60.753	36
62.1105	14
62.2624	24
68.3268	103
68.3484	38
70.0616	364
70.2314	36
72.5243	9
81.683	33
85.7506	41
85.7814	9
91.0123	45
98.0601	999
98.1974	4
98.3508	33
98.6647	45
100.0665	84
102.244	4
104.1492	74
110.3292	4
116.0658	125
117.9978	9
120.5462	24
120.9464	14
123.8886	101
124.595	149
125.3138	16
127.1804	31
131.1502	91
132.0831	55
133.2645	43
144.0634	436
144.2894	19
146.6291	7
146.9701	38
153.0355	53
161.7607	31
162.0668	89
162.1573	16
