Mass spectrum: DEOXYCYTIDINE; LC-ESI-QFT; MS2; CE: 30eV;  [M+H]+
Name: DEOXYCYTIDINE
Class: NA
Formula: C9H13N3O4
Exact mass: 227.09061
SMILES: NC1=NC(=O)N(C=C1)[C@H]1C[C@H](O)[C@@H](CO)O1
InChI: InChI=1S/C9H13N3O4/c10-7-1-2-12(9(15)11-7)8-3-5(14)6(4-13)16-8/h1-2,5-6,8,13-14H,3-4H2,(H2,10,11,15)/t5-,6+,8+/m0/s1
Instrument: Q-Exactive Orbitrap, Thermo Scientfic; Ultimate 3000 HPLC, Thermo Scientfic
Instrument type: LC-ESI-QFT
Ms type: MS2
Ion mode: POSITIVE
Ionization: ESI
Collision energy: 30eV
Column name: Acquity CSHC18
Retention time: 0.740 min
Base peak: 228.0979
Precursor m/z: 228.0979
Precursor type: [M+H]+
Precursor intensity: 150
m/z	relative intensity
51.6054	1
52.7473	1
55.5485	1
58.3701	1
60.9667	1
65.9373	1
69.0453	2
87.5423	1
93.9213	1
95.0248	6
99.0447	3
112.0511	999
113.0481	2
113.0543	19
117.0551	31
147.8543	1
181.3764	2
182.705	1
219.432	1
228.2329	8
