Mass spectrum: L-Cysteine; LC-ESI-QTOF; MS2; CE: 15.00;  [2M-2H+H]+
Name: L-Cysteine
Class: NA
Formula: C3H7NO2S
Exact mass: 121.0197
SMILES: C(C(C(=O)O)N)S
InChI: InChI=1S/C3H7NO2S/c4-2(1-7)3(5)6/h2,7H,1,4H2,(H,5,6)
Instrument: Bruker MicrOTOF-Q
Instrument type: LC-ESI-QTOF
Ms type: MS2
Ion mode: POSITIVE
Ionization: ESI
Collision energy: 15.00
Column name: Acquity CSHC18
Retention time: NA
Base peak: 241.0311
Precursor m/z: 241.0311
Precursor type: [2M-2H+H]+
m/z	relative intensity
103.98	13
105	22
107.97	9
118.96	12
120.01	934
121.01	59
122.03	329
123.03	24
136.96	10
151.98	999
152.2	9
152.99	52
153.26	9
154	22
155	30
163.99	10
178	31
178.92	10
195.02	38
205.99	9
223.99	13
241.03	131
