Mass spectrum: Isofraxidin; LC-ESI-QTOF; MS2; CE: 50eV;  [M-H]-
Name: Isofraxidin
Class: Coumarin
Formula: C11H10O5
Exact mass: 222.0528
SMILES: COC1=C(C(=C2C(=C1)C=CC(=O)O2)OC)O
InChI: InChI=1S/C11H10O5/c1-14-7-5-6-3-4-8(12)16-10(6)11(15-2)9(7)13/h3-5,13H,1-2H3
Instrument: TIMS-TOF Pro, Bruker Daltonik; Elute UHPLC System, Bruker Daltonik
Instrument type: LC-ESI-QTOF
Ms type: MS2
Ion mode: NEGATIVE
Ionization: ESI
Collision energy: 50eV
Column name: Acquity CSHC18
Retention time: 5.439 min
Base peak: 221.0436
Precursor m/z: 221.0436
Precursor type: [M-H]-
Precursor intensity: 8429.38
m/z	relative intensity
35.4448	11
41.0025	13
51.0232	160
52.0259	11
61.8415	9
64.984	11
67.0169	18
79.0182	604
80.0207	36
81.0324	11
91.0165	147
92.0196	15
95.0126	9
97.0274	27
105.6717	8
107.0115	304
108.0153	18
119.0122	60
135.0041	8
147.0086	9
163.0002	142
164.0043	13
190.9953	999
191.999	74
206.0189	814
207.0204	54
221.0436	22
