Mass spectrum: quinidine; LC-ESI-ITFT; MS2; CE: 0.3;  [M+H]+
Name: quinidine
Class: alkaloids
Formula: C20H24N2O2
Exact mass: 324.1838
SMILES: COC1=CC2=C(C=CN=C2C=C1)C(C3CC4CCN3CC4C=C)O
InChI: InChI=1S/C20H24N2O2/c1-3-13-12-22-9-7-14(13)10-19(22)20(23)16-6-8-21-18-5-4-15(24-2)11-17(16)18/h3-6,8,11,13-14,19-20,23H,1,7,9-10,12H2,2H3
Instrument: LTQ-Orbitrap XL hybrid mass spectrometer (Thermo Scientific)
Instrument type: LC-ESI-ITFT
Ms type: MS2
Ion mode: POSITIVE
Ionization: ESI
Collision energy: 0.3
Column name: Acquity CSHC18
Retention time: 3.921 min
Base peak: 325.1905
Precursor m/z: 325.1905
Precursor type: [M+H]+
Precursor intensity: 20282930
m/z	relative intensity
76.9236	4
80.0599	4
81.0353	5
89.8265	4
90.7874	4
91.1135	4
102.1304	5
102.7794	4
105.7551	4
108.0806	10
110.0961	60
111.5859	4
111.6614	4
118.0672	5
120.3936	6
120.5824	4
122.0961	7
124.1115	6
134.0958	14
138.1269	9
140.1554	5
148.1123	7
160.0755	197
162.091	24
166.1225	98
166.9852	26
167.1918	5
169.0518	7
172.0757	26
173.0826	10
174.0911	38
184.0755	390
185.0825	12
186.0913	75
188.0707	9
188.1073	7
190.1219	8
196.0754	11
196.8842	5
197.0828	9
197.5551	6
198.0912	313
199.0863	8
200.1072	6
202.0862	42
204.1019	7
208.0435	5
210.0914	38
212.1065	17
213.102	10
216.1025	21
224.1069	29
226.1219	38
227.1181	16
234.09	10
234.608	4
236.1065	18
238.1227	17
239.118	15
240.1394	9
242.9571	4
248.1053	5
249.1175	7
250.1235	20
251.1183	10
252.1373	28
253.1337	445
254.154	8
262.1224	19
264.1383	406
265.1339	7
266.0797	5
266.1534	18
267.4366	4
275.1581	5
276.1391	33
278.1542	102
279.1492	217
281.1623	6
282.1489	67
287.1554	13
290.1541	26
293.1638	8
296.1646	20
297.1955	38
304.8528	8
305.1658	11
307.1805	999
309.5382	7
316.9702	5
324.1388	12
325.1912	141
