Mass spectrum: 3-AMINO-5-HYDROXYBENZOATE; LC-ESI-QFT; MS2; CE: 30eV;  [M+H]+
Name: 3-AMINO-5-HYDROXYBENZOATE
Class: NA
Formula: C7H7NO3
Exact mass: 153.04259
SMILES: C1=C(C=C(C=C1N)O)C(=O)O
InChI: InChI=1S/C7H7NO3/c8-5-1-4(7(10)11)2-6(9)3-5/h1-3,9H,8H2,(H,10,11)
Instrument: Q-Exactive Orbitrap, Thermo Scientfic; Ultimate 3000 HPLC, Thermo Scientfic
Instrument type: LC-ESI-QFT
Ms type: MS2
Ion mode: POSITIVE
Ionization: ESI
Collision energy: 30eV
Column name: Acquity CSHC18
Retention time: 0.798 min
Base peak: 154.0499
Precursor m/z: 154.0499
Precursor type: [M+H]+
Precursor intensity: 126
m/z	relative intensity
50.8797	4
55.9351	23
57.2667	4
62.7928	4
65.0393	92
67.055	5
68.0138	37
74.299	4
80.0501	30
81.0341	40
82.0657	30
85.946	6
92.05	323
92.9671	7
93.0341	115
93.0533	7
108.0449	77
109.0525	24
110.0605	999
110.4618	5
110.8325	5
111.0446	91
111.0638	27
114.9719	74
122.5988	5
126.0553	55
126.9724	8
128.9509	5
131.951	7
131.987	42
136.0395	617
137.0236	22
137.043	31
153.0423	20
155.0472	20
155.0533	356
172.0603	11
173.2291	5
