Mass spectrum: DETHIOBIOTIN; LC-ESI-QTOF; MS2; CE: 10;  [M+H]+
Name: DETHIOBIOTIN
Class: NA
Formula: C10H18N2O3
Exact mass: 214.13174
SMILES: C[C@@H]1NC(=O)N[C@@H]1CCCCCC(O)=O
InChI: InChI=1S/C10H18N2O3/c1-7-8(12-10(15)11-7)5-3-2-4-6-9(13)14/h7-8H,2-6H2,1H3,(H,13,14)(H2,11,12,15)/t7-,8+/m0/s1
Instrument: Agilent 6530Â Q-TOF LC/MS
Instrument type: LC-ESI-QTOF
Ms type: MS2
Ion mode: POSITIVE
Ionization: ESI
Collision energy: 10
Column name: NA
Retention time: 0.200 min
Base peak: 215.14047
Precursor m/z: 215.14047
Precursor type: [M+H]+
Precursor intensity: 43.5
m/z	relative intensity
41.0556	12
42.0419	12
43.0437	13
44.0582	13
44.1772	13
46.0245	13
50.0169	13
51.021	13
53.0424	13
55.0606	13
56.0527	13
57.0645	14
58.082	14
60.0508	14
61.0453	14
65.0354	14
66.0492	14
67.0936	14
67.2775	14
68.0506	14
69.0952	14
70.0771	15
71.0585	15
72.0701	15
77.0477	15
79.0756	15
80.0546	15
81.0809	15
81.3365	15
82.0647	16
83.0772	16
84.0832	17
85.0618	17
86.0654	17
88.0761	18
91.0783	19
93.1022	20
94.0835	22
95.1036	22
95.3739	23
95.6353	24
96.0785	25
97.0754	25
98.0888	26
99.0903	29
99.3958	29
100.0883	31
104.3527	31
107.0958	33
108.0975	35
109.1427	35
109.5632	37
109.9705	37
110.1299	39
110.7894	39
111.1124	41
112.1023	44
113.0874	46
117.0805	49
119.1108	50
120.0854	52
121.0829	56
123.0617	59
124.1098	60
125.0918	62
126.1581	63
128.1063	64
134.1138	71
135.0978	72
136.1457	75
136.4468	77
136.5774	79
137.1204	80
137.4032	81
138.102	87
150.0906	91
151.1351	94
152.1443	96
153.1285	97
154.1882	115
155.1349	122
161.1017	123
162.1071	135
169.158	135
170.9217	152
172.1415	159
179.6665	162
180.5079	171
180.9179	188
195.5307	207
195.7062	233
195.9579	275
196.2466	315
196.4815	369
198.3085	383
200.1051	390
200.2493	396
200.8273	422
201.9211	423
202.0596	434
215.8488	476
216.7195	999
216.899	12
217.2514	12
