Mass spectrum: Genistein 7-glucoside; LC-ESI-QTOF; MS2; CE: 20-40eV;  [M+H]+
Name: Genistein 7-glucoside
Class: flavonoid
Formula: C21H20O10
Exact mass: 432.1056
SMILES: C=1C=C(C=CC1C2=COC3=CC(=CC(=C3C2=O)O)OC4(C(C(C(C(CO)(O4)[H])(O)[H])(O)[H])(O)[H])[H])O
InChI: InChI=1S/C21H20O10/c22-7-15-18(26)19(27)20(28)21(31-15)30-11-5-13(24)16-14(6-11)29-8-12(17(16)25)9-1-3-10(23)4-2-9/h1-6,8,15,18-24,26-28H,7H2
Instrument: Impact II, Bruker; Dionex 3000, Thermo Scientific
Instrument type: LC-ESI-QTOF
Ms type: MS2
Ion mode: POSITIVE
Ionization: ESI
Collision energy: 20-40eV
Column name: Acquity CSHC18
Retention time: 4.913 min
Base peak: 433.1122
Precursor m/z: 433.1122
Precursor type: [M+H]+
Precursor intensity: 15521.25
m/z	relative intensity
97.0279	10
119.0488	7
127.039	6
145.0498	3
146.0573	2
153.0165	15
271.06	999
272.0629	128
273.0636	15
415.0993	4
