Mass spectrum: D-Glucose; LC-ESI-ITFT; MS2; CE: 60;  [M-H]-
Name: D-Glucose
Class: Organic oxygen compounds; Organooxygen compounds; Carbohydrates and carbohydrate conjugates
Formula: C6H12O6
Exact mass: 180.06339
SMILES: OC[C@H]1OC(O)[C@H](O)[C@@H](O)[C@@H]1O
InChI: InChI=1S/C6H12O6/c7-1-2-3(8)4(9)5(10)6(11)12-2/h2-11H,1H2/t2-,3-,4+,5-,6?/m1/s1
Instrument: Thermo Scientific Q-Exactive Focus
Instrument type: LC-ESI-ITFT
Ms type: MS2
Ion mode: NEGATIVE
Ionization: ESI
Collision energy: 60
Column name: Acquity CSHC18
Retention time: 1.761 min
Base peak: 179.05611
Precursor m/z: 179.05611
Precursor type: [M-H]-
m/z	relative intensity
59.0126	999
72.4834	447
79.1232	448
80.7743	448
92.5152	465
99.3006	463
108.9235	464
129.2715	471
160.2008	509
167.0265	446
