Mass spectrum: 2-cyclohexen-1-one; APCI-ITFT; MS2; CE: HCD 90;  [M-H]-
Name: 2-cyclohexen-1-one
Class: NA
Formula: C6H8O
Exact mass: 96.05751
SMILES: C1CC=CC(=O)C1
InChI: InChI=1S/C6H8O/c7-6-4-2-1-3-5-6/h2,4H,1,3,5H2
Instrument: Orbitrap Elite
Instrument type: APCI-ITFT
Ms type: MS2
Ion mode: NEGATIVE
Ionization: APCI
Collision energy: HCD 90
Column name: Acquity CSHC18
Retention time: 0.098 min
Base peak: 95.05064
Precursor m/z: 95.05064
Precursor type: [M-H]-
Precursor intensity: 561322.8
m/z	relative intensity
59.8336	3
60.669	2
61.5075	2
62.5939	2
63.0192	2
64.1856	2
77.5221	2
80.0272	4
85.8357	2
90.1874	2
91.4139	2
91.6686	2
93.0353	52
94.0383	26
95.0137	20
95.0505	999
