Mass spectrum: 8-(methylsulfinyl)octyl isothiocyanate; LC-ESI-QTOF; MS2; CE: 15.00;  [M+H]+
Name: 8-(methylsulfinyl)octyl isothiocyanate
Class: NA
Formula: C10H19NOS2
Exact mass: 233.0908
SMILES: CS(=O)CCCCCCCCN=C=S
InChI: InChI=1S/C10H19NOS2/c1-14(12)9-7-5-3-2-4-6-8-11-10-13/h2-9H2,1H3
Instrument: Bruker MicrOTOF-Q
Instrument type: LC-ESI-QTOF
Ms type: MS2
Ion mode: POSITIVE
Ionization: ESI
Collision energy: 15.00
Column name: Acquity CSHC18
Retention time: NA
Base peak: 234.0981
Precursor m/z: 234.0981
Precursor type: [M+H]+
m/z	relative intensity
114.036	22
115.0513	4
117.0672	10
119.0835	24
121.0961	10
122.0928	33
125.038	10
126.1274	13
128.052	65
131.0851	19
133.1027	24
135.0888	5
136.1105	70
137.1197	183
138.1188	16
141.0728	14
142.0668	11
143.092	10
144.0978	3
145.097	36
147.1165	16
148.1286	4
149.0917	13
153.0731	18
157.1011	14
159.0828	32
161.0988	81
162.1033	4
163.0738	22
169.0969	4
170.1002	999
171.1006	81
172.0972	12
173.1267	21
174.1379	10
175.1344	20
177.0871	12
177.1677	10
178.0956	6
185.1372	4
187.1486	89
188.153	15
189.1567	25
190.1408	8
199.1464	9
203.1414	6
205.1563	52
206.1588	6
215.1415	22
217.1577	19
233.1537	56
234.0974	419
235.1	49
235.165	8
236.0944	14
