Mass spectrum: 13,14-dihydro-15-keto Prostaglandin J2; ESI-TOF; MS2; CE: 6.0000000;  [M+H]+
Name: 13,14-dihydro-15-keto Prostaglandin J2
Class: NA
Formula: C20H30O4
Exact mass: 334.21441
SMILES: O=C1C=C[C@H](C/C=C\CCCC(O)=O)[C@H]1CCC(CCCCC)=O
InChI: InChI=1S/C20H30O4/c1-2-3-6-10-17(21)13-14-18-16(12-15-19(18)22)9-7-4-5-8-11-20(23)24/h4,7,12,15-16,18H,2-3,5-6,8-11,13-14H2,1H3,(H,23,24)/b7-4-/t16-,18+/m0/s1
Instrument: waters xevo g2 TOF
Instrument type: ESI-TOF
Ms type: MS2
Ion mode: POSITIVE
Ionization: ESI
Collision energy: 6.0000000
Column name: Acquity CSHC18
Retention time: 3.862 min
Base peak: 335.22241
Precursor m/z: 335.22241
Precursor type: [M+H]+
m/z	relative intensity
165.0944	13
173.0964	18
174.0993	14
178.0828	38
178.5854	4
181.106	10
183.1179	3
185.0971	12
185.6117	1
187.0885	155
187.5905	16
191.1072	32
196.0929	31
196.5958	4
201.1279	6
203.1073	75
207.6017	9
208.1042	1
215.1429	3
219.1372	3
221.1538	1
233.1534	6
253.1953	1
263.1788	1
271.2055	5
281.1896	34
282.1925	5
289.2178	2
299.2008	133
300.2054	30
317.211	738
318.2149	171
319.2176	18
335.2224	999
336.2249	226
