Mass spectrum: Bergapten; LC-ESI-ITFT; MS2; CE: 45eV;  [M+H]+
Name: Bergapten
Class: coumarin
Formula: C12H8O4
Exact mass: 216.0423
SMILES: COC1=C2C=CC(=O)OC2=CC3=C1C=CO3
InChI: InChI=1S/C12H8O4/c1-14-12-7-2-3-11(13)16-10(7)6-9-8(12)4-5-15-9/h2-6H,1H3
Instrument: LTQ Orbitrap XL, Thermo Scientfic; Dionex Ultimate 300
Instrument type: LC-ESI-ITFT
Ms type: MS2
Ion mode: POSITIVE
Ionization: ESI
Collision energy: 45eV
Column name: Alltima C18
Retention time: 18.84 min
Base peak: 217.0497
Precursor m/z: 217.0497
Precursor type: [M+H]+
m/z	relative intensity
94.8717	10
114.9909	159
142.9863	88
157.961	83
170.9213	27
188.9675	999
198.8842	35
