Mass spectrum: 3,5-Dimethoxy-4-hydroxycinnamic acid; LC-ESI-QTOF; MS2; CE: 15.00;  [M+H]+
Name: 3,5-Dimethoxy-4-hydroxycinnamic acid
Class: NA
Formula: C11H12O5
Exact mass: 224.0685
SMILES: COC1=CC(=CC(=C1O)OC)C=CC(=O)O
InChI: InChI=1S/C11H12O5/c1-15-8-5-7(3-4-10(12)13)6-9(16-2)11(8)14/h3-6,14H,1-2H3,(H,12,13)
Instrument: Bruker MicrOTOF-Q
Instrument type: LC-ESI-QTOF
Ms type: MS2
Ion mode: POSITIVE
Ionization: ESI
Collision energy: 15.00
Column name: Acquity CSHC18
Retention time: NA
Base peak: 225.0757
Precursor m/z: 225.0757
Precursor type: [M+H]+
m/z	relative intensity
119.0482	99
120.0508	11
122.0682	3
123.0447	2
129.0335	34
133.0258	5
135.0468	4
136.0542	6
137.0543	6
138.0228	3
145.0279	9
146.0351	10
147.043	359
148.0464	35
149.0254	18
155.0722	10
160.0167	6
163.0403	13
164.0475	50
166.0551	5
174.0348	13
175.0389	999
176.0421	106
177.0176	35
179.0702	85
180.0749	13
183.0657	14
192.0413	670
193.0465	61
207.0652	709
207.3214	3
208.0694	84
209.0464	29
210.0508	2
224.0684	15
