Mass spectrum: Trimethylamine N-oxide; LC-ESI-ITFT; MS2; CE: 10;  [M+H]+
Name: Trimethylamine N-oxide
Class: Organic nitrogen compounds; Organonitrogen compounds; Aminoxides
Formula: C3H9NO
Exact mass: 75.06841
SMILES: C[N+](C)(C)[O-]
InChI: InChI=1S/C3H9NO/c1-4(2,3)5/h1-3H3
Instrument: Thermo Scientific Q-Exactive Focus
Instrument type: LC-ESI-ITFT
Ms type: MS2
Ion mode: POSITIVE
Ionization: ESI
Collision energy: 10
Column name: Acquity CSHC18
Retention time: 0.348 min
Base peak: 76.07569
Precursor m/z: 76.07569
Precursor type: [M+H]+
m/z	relative intensity
50.5029	1
51.2473	1
54.9012	1
56.0984	1
58.0657	951
59.0735	999
61.888	1
68.799	1
76.0761	493
77.3848	1
