Mass spectrum: Isovanillin; LC-ESI-QTOF; MS2; CE: 15.00;  [M-H]-
Name: Isovanillin
Class: NA
Formula: C8H8O3
Exact mass: 152.0473
SMILES: COC1=C(C=C(C=C1)C=O)O
InChI: InChI=1S/C8H8O3/c1-11-8-3-2-6(5-9)4-7(8)10/h2-5,10H,1H3
Instrument: Bruker MicrOTOF-Q
Instrument type: LC-ESI-QTOF
Ms type: MS2
Ion mode: NEGATIVE
Ionization: ESI
Collision energy: 15.00
Column name: Acquity CSHC18
Retention time: NA
Base peak: 151.0401
Precursor m/z: 151.0401
Precursor type: [M-H]-
m/z	relative intensity
44.88	59
45.855	55
48.5033	39
49.53	74
50.5533	39
51.34	74
52.45	49
54.585	37
56.8318	50
59.19	52
60.455	44
61.642	53
63.69	59
65.0462	50
66.16	74
66.81	44
68.1117	54
69.29	74
69.7	29
70.16	44
70.79	59
71.56	44
72.27	59
73.16	44
75.155	52
76.375	44
77.26	74
78.51	44
79.96	44
80.585	52
81.11	74
82.275	59
83.06	44
84.07	74
84.7267	49
86.06	49
88.495	52
89.93	59
92.1533	179
93.0567	49
94.1767	44
96.9167	49
98.4	37
99.425	44
100.16	44
101.0367	34
101.72	44
102.62	59
103.255	59
103.85	44
105.93	44
107.9218	572
109.02	432
110.01	54
111.18	44
113.29	44
113.77	44
114.93	29
117.73	59
118.18	44
118.94	74
120.54	44
121.03	44
121.78	29
123.02	44
123.45	44
123.89	29
125.13	44
125.6	44
126.49	59
127.42	44
128.57	44
131.12	59
134.01	44
136.2312	999
137.9833	59
140.85	29
150.93	44
164.36	29
191.24	29
198.46	59
224.82	59
297.45	44
300.42	44
309.53	29
352.41	29
399.42	29
430.8	44
431.56	29
440.12	44
452.65	44
482.12	59
565.04	44
695.28	44
731.51	44
741.95	44
886.3	59
894.17	44
