Mass spectrum: (R,S)- Protosinomenine HCl; ESI-QTOF; MS2; CE: 1, 35, 60;  [M+H]+
Name: (R,S)- Protosinomenine HCl
Class: Benzylisoquinoline alkaloid
Formula: C19H23NO4
Exact mass: 329.1627
SMILES: CN1CCC2=CC(=C(C=C2C1CC3=CC(=C(C=C3)OC)O)OC)O
InChI: InChI=1S/C19H23NO4/c1-20-7-6-13-10-17(22)19(24-3)11-14(13)15(20)8-12-4-5-18(23-2)16(21)9-12/h4-5,9-11,15,21-22H,6-8H2,1-3H3
Instrument: AB Sciex TripleToF 5500
Instrument type: ESI-QTOF
Ms type: MS2
Ion mode: POSITIVE
Ionization: ESI
Collision energy: 1, 35, 60
Column name: Acquity CSHC18
Retention time: 4.369 min
Base peak: 330.1705
Precursor m/z: 330.1705
Precursor type: [M+H]+
Precursor intensity: 1626553
m/z	relative intensity
77.0353	32
115.0499	38
141.0653	47
143.044	49
147.0628	77
151.0612	94
163.0599	95
165.0833	99
168.0697	105
189.071	121
194.0915	174
197.0529	175
209.0696	304
237.0694	309
255.0808	566
329.1392	999
