Mass spectrum: GLYCOCHENODEOXYCHOLATE; LC-ESI-QTOF; MS2; CE: 10;  [M+H]+
Name: GLYCOCHENODEOXYCHOLATE
Class: NA
Formula: C26H43NO5
Exact mass: 449.31412
SMILES: [H][C@@]1(CC[C@@]2([H])[C@]3([H])[C@H](O)C[C@]4([H])C[C@H](O)CC[C@]4(C)[C@@]3([H])CC[C@]12C)[C@H](C)CCC(=O)NCC(O)=O
InChI: InChI=1S/C26H43NO5/c1-15(4-7-22(30)27-14-23(31)32)18-5-6-19-24-20(9-11-26(18,19)3)25(2)10-8-17(28)12-16(25)13-21(24)29/h15-21,24,28-29H,4-14H2,1-3H3,(H,27,30)(H,31,32)/t15-,16+,17-,18-,19+,20+,21-,24+,25+,26-/m1/s1
Instrument: Agilent 6530Â Q-TOF LC/MS
Instrument type: LC-ESI-QTOF
Ms type: MS2
Ion mode: POSITIVE
Ionization: ESI
Collision energy: 10
Column name: NA
Retention time: 0.200 min
Base peak: 450.32196
Precursor m/z: 450.32196
Precursor type: [M+H]+
Precursor intensity: 157.5
m/z	relative intensity
55.0532	64
76.0439	65
81.0696	65
107.086	66
109.1	67
121.1074	67
131.0872	68
145.1014	73
149.1332	73
158.0858	74
159.1179	74
161.1413	77
173.1314	83
175.1507	87
185.1303	88
201.1644	88
210.1222	89
211.1453	92
212.1291	92
215.1826	94
226.1386	96
229.1911	100
239.1801	102
252.1684	110
292.1935	131
320.2267	133
321.2685	139
339.2962	155
414.3537	181
415.305	319
432.3533	428
450.3402	999
