Mass spectrum: ASPARTATE; LC-ESI-QTOF; MS2; CE: 40;  [M+H]+
Name: ASPARTATE
Class: NA
Formula: C4H7NO4
Exact mass: 133.0375
SMILES: N[C@@H](CC(O)=O)C(O)=O
InChI: InChI=1S/C4H7NO4/c5-2(4(8)9)1-3(6)7/h2H,1,5H2,(H,6,7)(H,8,9)/t2-/m0/s1
Instrument: Agilent 6530Â Q-TOF LC/MS
Instrument type: LC-ESI-QTOF
Ms type: MS2
Ion mode: POSITIVE
Ionization: ESI
Collision energy: 40
Column name: NA
Retention time: 0.200 min
Base peak: 134.04486
Precursor m/z: 134.04486
Precursor type: [M+H]+
Precursor intensity: 120.5
m/z	relative intensity
43.0161	40
44.0154	7
44.6256	49
47.4555	7
49.2514	5
51.3682	28
53.2877	23
54.4962	11
56.8142	7
57.2111	14
57.9553	6
58.5361	16
64.9264	999
65.0264	4
65.063	11
65.4929	13
65.528	3
65.6771	11
69.4976	11
70.0624	34
92.3944	26
92.4311	5
93.6945	5
96.4723	4
100.413	47
100.6398	5
105.5299	12
107.3774	12
109.0052	37
110.8809	44
111.4961	13
117.2727	3
121.2687	23
129.0041	18
136.0546	7
