Mass spectrum: Prostaglandin E3; ESI-TOF; MS2; CE: 6.0000000;  [M+H]+
Name: Prostaglandin E3
Class: NA
Formula: C20H30O5
Exact mass: 350.20932
SMILES: CCC=CCC(C=CC1C(CC(=O)C1CC=CCCCC(=O)O)O)O
InChI: InChI=1S/C20H30O5/c1-2-3-6-9-15(21)12-13-17-16(18(22)14-19(17)23)10-7-4-5-8-11-20(24)25/h3-4,6-7,12-13,15-17,19,21,23H,2,5,8-11,14H2,1H3,(H,24,25)
Instrument: waters xevo g2 TOF
Instrument type: ESI-TOF
Ms type: MS2
Ion mode: POSITIVE
Ionization: ESI
Collision energy: 6.0000000
Column name: Acquity CSHC18
Retention time: 3.356 min
Base peak: 351.21732
Precursor m/z: 351.21732
Precursor type: [M+H]+
m/z	relative intensity
91.0541	1
93.0704	1
128.062	1
131.0883	1
141.0739	1
143.0855	1
145.1008	1
149.0964	12
165.0572	9
189.0881	15
207.1033	21
231.1383	14
243.175	15
251.0581	19
260.0463	1
269.1895	14
271.1682	15
273.1833	19
279.172	55
287.2045	26
297.1854	319
298.1888	60
299.202	16
301.1456	1
315.195	326
317.1083	24
318.0829	8
333.2056	192
334.2072	32
352.1795	29
357.2204	8
369.1153	1
371.1498	1
373.1984	999
374.2023	171
375.209	51
386.1179	120
387.1238	149
388.1257	29
389.1642	103
405.1367	140
406.1498	14
407.1384	83
408.1392	28
419.1492	11
446.1339	10
736.3267	10
754.3288	22
756.3463	16
757.344	17
