Mass spectrum: 4-Methoxy-3-indolylmethyl glucosinolate; LC-ESI-QTOF; MS2; CE: 50eV;  [M-H]-
Name: 4-Methoxy-3-indolylmethyl glucosinolate
Class: indolic glucosinolate
Formula: C17H22N2O10S2
Exact mass: 478.0716
SMILES: COC1=CC=CC2=C1C(=CN2)CC(=NOS(=O)(=O)O)SC3C(C(C(C(O3)CO)O)O)O
InChI: InChI=1S/C17H22N2O10S2/c1-27-10-4-2-3-9-13(10)8(6-18-9)5-12(19-29-31(24,25)26)30-17-16(23)15(22)14(21)11(7-20)28-17/h2-4,6,11,14-18,20-23H,5,7H2,1H3,(H,24,25,26)
Instrument: TIMS-TOF Pro, Bruker Daltonik; Elute UHPLC System, Bruker Daltonik
Instrument type: LC-ESI-QTOF
Ms type: MS2
Ion mode: NEGATIVE
Ionization: ESI
Collision energy: 50eV
Column name: Acquity CSHC18
Retention time: 7.115 min
Base peak: 477.0536
Precursor m/z: 477.0536
Precursor type: [M-H]-
Precursor intensity: 6624
m/z	relative intensity
27.5899	19
74.9892	250
75.992	22
79.9514	19
95.9506	615
96.9587	463
97.9471	37
98.9546	24
477.0536	999
