Mass spectrum: (+-)-Abscisic acid; LC-ESI-QTOF; MS2; CE: 15;  [M-H]-
Name: (+-)-Abscisic acid
Class: NA
Formula: C15H20O4
Exact mass: 264.1362
SMILES: CC1=CC(=O)CC(C1(C=CC(=CC(=O)O)C)O)(C)C
InChI: InChI=1S/C15H20O4/c1-10(7-13(17)18)5-6-15(19)11(2)8-12(16)9-14(15,3)4/h5-8,19H,9H2,1-4H3,(H,17,18)
Instrument: Bruker MicrOTOF-Q
Instrument type: LC-ESI-QTOF
Ms type: MS2
Ion mode: NEGATIVE
Ionization: ESI
Collision energy: 15
Column name: Acquity CSHC18
Retention time: NA
Base peak: 263.1289
Precursor m/z: 263.1289
Precursor type: [M-H]-
m/z	relative intensity
51.3094	49
54.173	48
55.2438	49
58.3543	57
60.5622	60
63.8432	82
67.3245	56
70.8008	75
76.3723	51
77.1489	65
79.4012	60
82.1409	41
87.8506	77
93.0726	51
96.6263	55
100.8403	58
106.6779	46
110.0603	61
110.8826	43
112.7085	37
114.047	51
115.1064	58
115.5297	41
119.6751	72
123.0893	70
125.0987	67
127.5276	77
135.0782	55
136.452	49
137.2378	59
138.0572	77
138.468	56
142.7206	62
143.6302	55
146.7408	37
148.9162	51
149.9774	72
151.0802	134
152.0864	117
153.0854	104
158.6523	55
164.0502	65
166.9009	44
171.0697	46
171.6868	48
176.7427	68
183.0906	36
185.2407	63
188.0871	41
189.0964	175
190.0508	46
199.0545	82
201.1242	999
202.147	44
203.108	409
203.8526	625
205.121	201
206.7772	36
216.7549	36
219.0114	372
220.1466	99
220.9604	74
242.6752	36
245.1208	46
258.3261	58
263.1129	51
264.1319	70
399.0352	58
549.1781	46
769.0132	43
801.48	53
802.0482	41
832.8304	62
853.5339	58
858.7571	34
874.3143	53
