Mass spectrum: N-Methyl-D-aspartic acid; LC-ESI-ITFT; MS2; CE: 20;  [M+H]+
Name: N-Methyl-D-aspartic acid
Class: Organic acids and derivatives; Carboxylic acids and derivatives; Amino acids, peptides, and analogues
Formula: C5H9NO4
Exact mass: 147.05316
SMILES: CN[C@H](CC(O)=O)C(O)=O
InChI: InChI=1S/C5H9NO4/c1-6-3(5(9)10)2-4(7)8/h3,6H,2H2,1H3,(H,7,8)(H,9,10)/t3-/m1/s1
Instrument: Thermo Scientific Q-Exactive Focus
Instrument type: LC-ESI-ITFT
Ms type: MS2
Ion mode: POSITIVE
Ionization: ESI
Collision energy: 20
Column name: Acquity CSHC18
Retention time: 0.632 min
Base peak: 148.06042
Precursor m/z: 148.06042
Precursor type: [M+H]+
m/z	relative intensity
58.0656	13
60.0449	86
70.0291	8
79.664	3
84.0447	202
88.0396	999
102.0552	166
160.2208	4
160.7449	4
166.0256	3
