Mass spectrum: METHIONINE SULFOXIMINE; LC-ESI-QFT; MS2; CE: 30eV;  [M+H]+
Name: METHIONINE SULFOXIMINE
Class: NA
Formula: C5H12N2O3S
Exact mass: 180.05686
SMILES: CS(=N)(=O)CCC(N)C(O)=O
InChI: InChI=1S/C5H12N2O3S/c1-11(7,10)3-2-4(6)5(8)9/h4,7H,2-3,6H2,1H3,(H,8,9)
Instrument: Q-Exactive Orbitrap, Thermo Scientfic; Ultimate 3000 HPLC, Thermo Scientfic
Instrument type: LC-ESI-QFT
Ms type: MS2
Ion mode: POSITIVE
Ionization: ESI
Collision energy: 30eV
Column name: Acquity CSHC18
Retention time: 0.527 min
Base peak: 181.0641
Precursor m/z: 181.0641
Precursor type: [M+H]+
Precursor intensity: 121
m/z	relative intensity
54.9478	1
56.0504	173
57.0538	1
62.9908	3
70.9425	2
72.0453	15
74.0245	81
74.0609	200
75.0642	2
80.0173	149
84.0452	57
84.9605	1
85.0292	11
85.0486	1
88.04	2
88.9531	1
91.022	4
95.9743	7
96.9727	6
100.04	18
102.0557	999
103.059	24
111.969	78
112.9675	13
113.9846	1
116.9669	3
118.0328	3
119.9759	1
120.012	3
129.9795	39
130.9647	1
130.978	6
135.957	2
138.9865	1
139.9637	19
139.9827	7
140.9622	7
153.9809	3
156.998	1
157.9743	25
158.9728	10
163.0541	16
163.9406	1
164.0382	5
175.9627	2
181.0647	111
181.1228	1
182.0686	1
