Mass spectrum: 3-HYDROXYANTHRANILATE; LC-ESI-QTOF; MS2; CE: 10;  [M+H]+
Name: 3-HYDROXYANTHRANILATE
Class: NA
Formula: C7H7NO3
Exact mass: 153.04259
SMILES: NC1=C(O)C=CC=C1C(O)=O
InChI: InChI=1S/C7H7NO3/c8-6-4(7(10)11)2-1-3-5(6)9/h1-3,9H,8H2,(H,10,11)
Instrument: Agilent 6530Â Q-TOF LC/MS
Instrument type: LC-ESI-QTOF
Ms type: MS2
Ion mode: POSITIVE
Ionization: ESI
Collision energy: 10
Column name: NA
Retention time: 0.200 min
Base peak: 154.04807
Precursor m/z: 154.04807
Precursor type: [M+H]+
Precursor intensity: 171.5
m/z	relative intensity
53.0446	34
54.0405	38
80.0725	75
83.0772	89
108.0736	91
136.1271	487
136.373	504
154.0516	999
