Mass spectrum: Myricitrin; LC-ESI-ITFT; MS2; CE: 0.3;  [M+H]+
Name: Myricitrin
Class: flavonol glycosides
Formula: C21H20O12
Exact mass: 464.0955
SMILES: CC1C(C(C(C(O1)OC2=C(OC3=CC(=CC(=C3C2=O)O)O)C4=CC(=C(C(=C4)O)O)O)O)O)O
InChI: InChI=1S/C21H20O12/c1-6-14(26)17(29)18(30)21(31-6)33-20-16(28)13-9(23)4-8(22)5-12(13)32-19(20)7-2-10(24)15(27)11(25)3-7/h2-6,14,17-18,21-27,29-30H,1H3
Instrument: LTQ-Orbitrap XL hybrid mass spectrometer (Thermo Scientific)
Instrument type: LC-ESI-ITFT
Ms type: MS2
Ion mode: POSITIVE
Ionization: ESI
Collision energy: 0.3
Column name: Acquity CSHC18
Retention time: 5.120 min
Base peak: 465.1013
Precursor m/z: 465.1013
Precursor type: [M+H]+
Precursor intensity: 5258219
m/z	relative intensity
166.9527	3
197.3383	1
287.0821	1
303.0497	44
304.052	2
315.7628	1
316.5776	4
318.8466	4
318.8631	3
319.0048	2
319.0444	999
320.0476	81
320.7115	1
321.5392	4
324.0748	1
329.0288	16
330.0303	1
343.0447	5
361.0549	11
373.0547	3
385.054	4
411.0697	5
429.0809	25
430.0842	2
447.0912	35
448.095	3
