Mass spectrum: 3-METHOXY-4-HYDROXYMANDELATE; LC-ESI-QTOF; MS2; CE: 40;  [M-H]-
Name: 3-METHOXY-4-HYDROXYMANDELATE
Class: NA
Formula: C9H10O5
Exact mass: 198.05282
SMILES: COC1=C(O)C=CC(=C1)[C@H](O)C(O)=O
InChI: InChI=1S/C9H10O5/c1-14-7-4-5(2-3-6(7)10)8(11)9(12)13/h2-4,8,10-11H,1H3,(H,12,13)/t8-/m0/s1
Instrument: Agilent 6530Â Q-TOF LC/MS
Instrument type: LC-ESI-QTOF
Ms type: MS2
Ion mode: NEGATIVE
Ionization: ESI
Collision energy: 40
Column name: NA
Retention time: 0.200 min
Base peak: 197.04370
Precursor m/z: 197.04370
Precursor type: [M-H]-
Precursor intensity: 180
m/z	relative intensity
53.0406	142
81.0325	143
91.0167	159
92.0316	199
108.0318	294
109.0265	417
136.0293	476
137.0478	999
