Mass spectrum: 5-Methylsulfinylpentyl glucosinolate; LC-ESI-ITFT; MS2; CE: 30;  [M+H]+
Name: 5-Methylsulfinylpentyl glucosinolate
Class: NA
Formula: C13H25NO10S3
Exact mass: 451.0641
SMILES: CS(=O)CCCCCC(=NOS(=O)(=O)O)SC1C(C(C(C(O1)CO)O)O)O
InChI: InChI=1S/C13H25NO10S3/c1-26(19)6-4-2-3-5-9(14-24-27(20,21)22)25-13-12(18)11(17)10(16)8(7-15)23-13/h8,10-13,15-18H,2-7H2,1H3,(H,20,21,22)
Instrument: q exactive focus thermo
Instrument type: LC-ESI-ITFT
Ms type: MS2
Ion mode: POSITIVE
Ionization: ESI
Collision energy: 30
Column name: Acquity CSHC18
Retention time: 2.619 min
Base peak: 452.0716
Precursor m/z: 452.0716
Precursor type: [M+H]+
Precursor intensity: 1024799
m/z	relative intensity
101.0423	12
104.0457	17
105.0116	22
107.977	29
109.0192	36
111.0256	37
113.0019	38
115.9904	38
117.9554	51
118.0541	53
118.9551	53
119.0651	54
120.061	55
121.0374	56
123.0808	59
123.9549	63
128.0577	66
130.9723	69
131.0674	74
139.0194	74
142.0603	80
148.9696	81
149.0774	87
149.9511	90
157.0951	97
159.0761	98
173.1073	105
198.0323	152
219.9037	152
220.8947	234
224.8885	421
232.0252	466
246.9649	999
