Mass spectrum: 2-Arachidonyl Glycerol ether; ESI-TOF; MS2; CE: 0.6458333;  [M+H]+
Name: 2-Arachidonyl Glycerol ether
Class: NA
Formula: C23H40O3
Exact mass: 364.29775
SMILES: CCCCCC=CCC=CCC=CCC=CCCCCOC(CO)CO
InChI: InChI=1S/C23H40O3/c1-2-3-4-5-6-7-8-9-10-11-12-13-14-15-16-17-18-19-20-26-23(21-24)22-25/h6-7,9-10,12-13,15-16,23-25H,2-5,8,11,14,17-22H2,1H3
Instrument: waters xevo g2 TOF
Instrument type: ESI-TOF
Ms type: MS2
Ion mode: POSITIVE
Ionization: ESI
Collision energy: 0.6458333
Column name: Acquity CSHC18
Retention time: 6.881 min
Base peak: 365.30575
Precursor m/z: 365.30575
Precursor type: [M+H]+
m/z	relative intensity
67.0547	120
69.0712	49
79.0552	205
81.0705	314
91.0553	221
93.0706	388
95.0862	437
96.0893	31
97.1016	53
105.0707	244
107.0868	270
109.1018	235
112.9913	37
119.0863	202
121.1016	643
122.105	36
123.1168	89
131.0021	254
133.1018	284
134.1048	31
135.1175	305
137.1323	22
147.1172	263
149.1328	103
151.1486	32
156.1067	32
161.1328	222
163.1483	63
165.1642	15
175.149	270
176.1528	27
177.1643	130
189.1642	188
190.1679	15
191.1797	186
192.183	25
202.1305	999
202.6322	236
203.1797	80
205.1956	88
217.1962	49
231.2121	37
273.2585	403
274.2622	86
291.2701	10
329.217	103
330.2216	41
344.1804	39
355.2308	37
365.3068	117
