Mass spectrum: Phloroglucinol; ESI-TOF; MS2; CE: 0.6458333;  [M+H]+
Name: Phloroglucinol
Class: NA
Formula: C6H6O3
Exact mass: 126.03169
SMILES: OC1=CC(O)=CC(O)=C1
InChI: InChI=1S/C6H6O3/c7-4-1-5(8)3-6(9)2-4/h1-3,7-9H
Instrument: waters xevo g2 TOF
Instrument type: ESI-TOF
Ms type: MS2
Ion mode: POSITIVE
Ionization: ESI
Collision energy: 0.6458333
Column name: Acquity CSHC18
Retention time: 0.758 min
Base peak: 127.03969
Precursor m/z: 127.03969
Precursor type: [M+H]+
m/z	relative intensity
68.9982	36
81.0341	512
99.0445	120
109.0289	237
127.0394	999
128.0431	68
163.9555	130
163.9558	69
180.9585	107
181.9666	225
182.9731	186
198.9684	57
198.9692	39
199.9769	45
219.9781	7
225.9558	81
226.9628	44
277.0284	25
305.9826	109
306.9889	114
