Mass spectrum: D-Ribulose 5-phosphate; LC-ESI-ITFT; MS2; CE: 40;  [M-H]-
Name: D-Ribulose 5-phosphate
Class: Organooxygen compounds; Carbohydrates and carbohydrate conjugates; Monosaccharides
Formula: C5H11O8P
Exact mass: 230.01915
SMILES: OCC(=O)[C@H](O)[C@H](O)COP(O)(O)=O
InChI: InChI=1S/C5H11O8P/c6-1-3(7)5(9)4(8)2-13-14(10,11)12/h4-6,8-9H,1-2H2,(H2,10,11,12)/t4-,5+/m1/s1
Instrument: Thermo Scientific Q-Exactive Focus
Instrument type: LC-ESI-ITFT
Ms type: MS2
Ion mode: NEGATIVE
Ionization: ESI
Collision energy: 40
Column name: Acquity CSHC18
Retention time: 1.475 min
Base peak: 229.01189
Precursor m/z: 229.01189
Precursor type: [M-H]-
m/z	relative intensity
59.0126	1
71.0126	24
78.9392	1
78.9578	999
92.5134	1
92.5153	3
96.9684	81
