Mass spectrum: Apigenin 7-methyl ether; LC-ESI-QTOF; MS2; CE: 50eV;  [M-H]-
Name: Apigenin 7-methyl ether
Class: Flavone
Formula: C16H12O5
Exact mass: 284.0685
SMILES: COC1=CC(=C2C(=C1)OC(=CC2=O)C3=CC=C(C=C3)O)O
InChI: InChI=1S/C16H12O5/c1-20-11-6-12(18)16-13(19)8-14(21-15(16)7-11)9-2-4-10(17)5-3-9/h2-8,17-18H,1H3
Instrument: TIMS-TOF Pro, Bruker Daltonik; Elute UHPLC System, Bruker Daltonik
Instrument type: LC-ESI-QTOF
Ms type: MS2
Ion mode: NEGATIVE
Ionization: ESI
Collision energy: 50eV
Column name: Acquity CSHC18
Retention time: 8.993 min
Base peak: 283.0578
Precursor m/z: 283.0578
Precursor type: [M-H]-
Precursor intensity: 603297.5
m/z	relative intensity
41.0029	3
43.9382	1
63.0229	71
64.027	4
65.0022	44
66.0065	3
78.0097	1
79.0184	2
83.0132	30
84.0161	3
89.0203	7
92.0258	4
92.7031	1
94.0042	11
95.0112	1
97.029	4
100.4049	1
102.6322	1
104.0249	1
106.0059	4
107.0115	40
107.5864	1
108.0153	4
116.0242	4
117.0131	120
118.0352	13
119.012	1
120.0203	5
121.0278	3
121.9994	3
123.0063	1
130.0396	3
131.0448	1
135.0074	2
136.5728	1
137.5992	1
140.3483	1
141.0347	1
142.042	1
142.8588	1
143.9104	1
147.0101	2
148.0155	8
148.7684	1
149.994	6
151.0018	24
151.6186	1
152.0071	1
152.8793	1
155.047	4
156.0578	1
158.0357	3
158.7859	1
165.017	2
166.0414	1
167.0507	3
168.0569	1
169.0292	1
171.0441	5
172.052	2
183.0428	8
184.0511	3
195.0429	2
196.0505	1
210.0298	2
211.0365	8
212.0432	3
227.6531	1
240.0381	3
242.5043	1
267.0274	2
268.0358	567
268.1726	1
268.2668	1
268.4076	1
268.582	1
268.7875	1
268.8702	1
269.0383	50
270.0401	2
282.9304	1
283.0578	999
283.3777	1
