Mass spectrum: N-Acetylserotonin; LC-ESI-ITFT; MS2; CE: 20;  [M+H]+
Name: N-Acetylserotonin
Class: Organoheterocyclic compounds; Indoles and derivatives; Hydroxyindoles
Formula: C12H14N2O2
Exact mass: 218.10553
SMILES: CC(=O)NCCC1=CNC2=C1C=C(O)C=C2
InChI: InChI=1S/C12H14N2O2/c1-8(15)13-5-4-9-7-14-12-3-2-10(16)6-11(9)12/h2-3,6-7,14,16H,4-5H2,1H3,(H,13,15)
Instrument: Thermo Scientific Q-Exactive Focus
Instrument type: LC-ESI-ITFT
Ms type: MS2
Ion mode: POSITIVE
Ionization: ESI
Collision energy: 20
Column name: Acquity CSHC18
Retention time: 0.634 min
Base peak: 219.11279
Precursor m/z: 219.11279
Precursor type: [M+H]+
m/z	relative intensity
86.0604	4
105.07	6
115.0543	22
117.0574	12
132.0807	65
133.0647	11
142.0651	9
159.0677	5
160.0756	999
202.0859	14
