Mass spectrum: Ureidopropionic acid; LC-ESI-QTOF; MS2; CE: 10;  [M-H]-
Name: Ureidopropionic acid
Class: NA
Formula: C4H8N2O3
Exact mass: 132.05349
SMILES: C(CNC(=O)N)C(=O)O
InChI: InChI=1S/C4H8N2O3/c5-4(9)6-2-1-3(7)8/h1-2H2,(H,7,8)(H3,5,6,9)
Instrument: impact II
Instrument type: LC-ESI-QTOF
Ms type: MS2
Ion mode: NEGATIVE
Ionization: ESI
Collision energy: 10
Column name: Acquity CSHC18
Retention time: 1.737 min
Base peak: 131.04630
Precursor m/z: 131.04630
Precursor type: [M-H]-
m/z	relative intensity
59.0138	27
59.025	28
60.0091	2
71.0138	4
87.0455	1
88.0403	999
88.0516	55
88.0742	2
88.0828	3
88.106	4
88.1159	8
88.1295	3
88.1587	3
88.1683	3
88.1826	2
88.2031	3
88.212	2
88.2296	2
88.2415	2
88.2617	2
88.2752	2
88.289	2
88.3	2
88.3118	2
88.3371	2
88.3439	1
88.3608	1
88.3679	1
88.3804	1
88.4077	2
88.4187	1
88.4361	1
88.4594	1
88.4819	1
88.5182	1
89.0438	34
114.0195	6
131.0461	13
131.0718	1
