Mass spectrum: HYPOXANTHINE; LC-ESI-QTOF; MS2; CE: 10;  [M-H]-
Name: HYPOXANTHINE
Class: NA
Formula: C5H4N4O
Exact mass: 136.03851
SMILES: OC1=NC=NC2=C1NC=N2
InChI: InChI=1S/C5H4N4O/c10-5-3-4(7-1-6-3)8-2-9-5/h1-2H,(H2,6,7,8,9,10)
Instrument: Agilent 6530Â Q-TOF LC/MS
Instrument type: LC-ESI-QTOF
Ms type: MS2
Ion mode: NEGATIVE
Ionization: ESI
Collision energy: 10
Column name: NA
Retention time: 0.200 min
Base peak: 135.02979
Precursor m/z: 135.02979
Precursor type: [M-H]-
Precursor intensity: 150
m/z	relative intensity
41.0154	125
64.0095	136
65.0252	137
66.0139	308
92.0416	537
133.0172	978
135.0488	999
