Mass spectrum: Ginkgolide B; LC-ESI-QFT; MS2; CE: 15,30,45 (NCE);  [M+NH4]+
Name: Ginkgolide B
Class: NA
Formula: C20H24O10
Exact mass: 424.1369
SMILES: CC1C(=O)OC2C(O)C34C5CC(C(C)(C)C)C33C(O)C(=O)OC3OC4(C(=O)O5)C12O
InChI: InChI=1S/C20H24O10/c1-6-12(23)28-11-9(21)18-8-5-7(16(2,3)4)17(18)10(22)13(24)29-15(17)30-20(18,14(25)27-8)19(6,11)26/h6-11,15,21-22,26H,5H2,1-4H3
Instrument: QE Focus, Thermo Scientfic; UPLC I-Class, Waters
Instrument type: LC-ESI-QFT
Ms type: MS2
Ion mode: POSITIVE
Ionization: ESI
Collision energy: 15,30,45 (NCE)
Column name: Acquity CSHC18
Retention time: 2.065 min
Base peak: 442.1707
Precursor m/z: 442.1707
Precursor type: [M+NH4]+
Precursor intensity: 122259700
m/z	relative intensity
54.4928	20
60.6353	17
74.6085	18
91.729	21
96.5671	23
145.0642	27
187.0756	22
229.0868	49
257.0803	28
267.6268	20
271.1324	21
305.1018	125
325.1061	30
327.1229	28
343.1173	33
361.1275	142
379.1393	91
389.1278	22
407.1296	32
425.144	661
442.1709	999
