Mass spectrum: 13,14-dihydro-15(R)-Prostaglandin E1; ESI-TOF; MS2; CE: 0.6458333;  [M+H]+
Name: 13,14-dihydro-15(R)-Prostaglandin E1
Class: NA
Formula: C20H36O5
Exact mass: 356.25627
SMILES: CCCCC[C@@H](O)CC[C@H]1C(O)CC(=O)C1CCCCCCC(=O)O
InChI: InChI=1S/C20H36O5/c1-2-3-6-9-15(21)12-13-17-16(18(22)14-19(17)23)10-7-4-5-8-11-20(24)25/h15-17,19,21,23H,2-14H2,1H3,(H,24,25)/t15-,16?,17-,19?/m1/s1
Instrument: waters xevo g2 TOF
Instrument type: ESI-TOF
Ms type: MS2
Ion mode: POSITIVE
Ionization: ESI
Collision energy: 0.6458333
Column name: Acquity CSHC18
Retention time: 3.701 min
Base peak: 357.26427
Precursor m/z: 357.26427
Precursor type: [M+H]+
m/z	relative intensity
67.0539	77
69.0699	51
79.0546	108
81.0706	314
91.0549	288
93.0709	326
95.0863	354
105.0711	406
107.0869	265
109.1031	119
111.0827	37
117.0709	94
119.0706	383
121.1023	161
123.1181	42
129.072	54
131.0862	352
132.0907	20
133.1025	384
134.1053	28
135.1176	144
137.0918	15
145.1021	222
146.1081	17
147.1186	244
149.0799	39
159.1185	221
162.1372	16
163.1113	36
169.1025	48
171.1177	91
173.1328	200
175.1495	115
177.1272	84
183.1093	16
187.1493	187
189.1152	62
193.124	34
197.1336	57
199.1454	39
201.1654	74
205.1591	47
207.1381	30
211.1481	37
219.1749	28
221.1542	22
233.1541	24
258.2324	26
267.2118	73
275.2366	79
285.2221	177
303.2321	999
304.2365	170
310.0889	32
321.2432	161
333.1626	18
359.189	245
