Mass spectrum: L-Homoserine lactone; LC-ESI-ITFT; MS2; CE: 10;  [M+H]+
Name: L-Homoserine lactone
Class: NA
Formula: C4H7NO2
Exact mass: 101.04768
SMILES: C1COC(=O)[C@H]1N
InChI: InChI=1S/C4H7NO2/c5-3-1-2-7-4(3)6/h3H,1-2,5H2/t3-/m0/s1
Instrument: Thermo Scientific Q-Exactive Focus
Instrument type: LC-ESI-ITFT
Ms type: MS2
Ion mode: POSITIVE
Ionization: ESI
Collision energy: 10
Column name: Acquity CSHC18
Retention time: 0.112 min
Base peak: 102.05496
Precursor m/z: 102.05496
Precursor type: [M+H]+
m/z	relative intensity
56.05	187
56.9653	4
61.0401	18
74.0241	999
74.0604	483
74.0968	3
84.0447	274
85.0287	61
102.0552	455
102.1279	41
