Mass spectrum: 4,7-Dihydroxycoumarin; LC-ESI-QTOF; MS2; CE: 15;  [M-H]-
Name: 4,7-Dihydroxycoumarin
Class: NA
Formula: C9H6O4
Exact mass: 178.0266
SMILES: C1=CC2=C(C=C1O)OC(=O)C=C2O
InChI: InChI=1S/C9H6O4/c10-5-1-2-6-7(11)4-9(12)13-8(6)3-5/h1-4,10-11H
Instrument: Bruker MicrOTOF-Q
Instrument type: LC-ESI-QTOF
Ms type: MS2
Ion mode: NEGATIVE
Ionization: ESI
Collision energy: 15
Column name: Acquity CSHC18
Retention time: NA
Base peak: 177.0193
Precursor m/z: 177.0193
Precursor type: [M-H]-
m/z	relative intensity
44.948	27
46.9354	25
49.4069	26
52.4898	25
54.884	18
56.6182	22
61.0777	28
63.8836	36
65.701	25
69.5241	27
71.5963	27
72.3162	24
73.9902	25
75.5931	46
76.0699	20
78.1333	26
79.7895	28
83.4282	25
87.1604	32
89.7258	66
93.6291	25
98.0955	22
101.3105	27
102.0052	27
104.2747	35
106.5043	23
108.6325	42
110.636	30
111.2278	21
112.6305	17
114.8196	25
117.717	27
119.8059	26
121.3239	21
123.4445	24
124.9641	27
125.821	19
127.0821	23
127.7536	27
128.3384	21
129.9605	23
134.0626	999
138.5463	20
140.4193	19
142.5274	27
143.3365	17
146.6801	23
148.9489	49
152.4153	20
153.0925	290
154.0574	30
155.5404	23
157.3157	27
159.0127	18
161.6981	20
163.6399	15
164.377	37
165.8799	31
166.9025	28
168.8654	20
169.6455	24
174.6551	21
177.1083	621
178.8222	37
179.6285	16
194.9364	28
204.0082	25
214.6533	17
220.5506	25
225.325	27
237.8434	30
244.319	29
255.5302	24
257.8847	14
287.3506	24
289.2869	23
314.2476	22
353.402	32
376.3133	26
387.8155	18
433.4852	21
454.8145	14
466.2067	17
474.563	24
518.091	19
534.5315	17
535.8023	21
558.5938	21
590.7213	32
695.1389	26
856.4941	23
898.7029	21
