Mass spectrum: Resveratrol; LC-ESI-ITFT; MS2; CE: 60;  [M+H]+
Name: Resveratrol
Class: Phenylpropanoids and polyketides; Stilbenes
Formula: C14H12O3
Exact mass: 228.07864
SMILES: OC1=CC=C(\C=C\C2=CC(O)=CC(O)=C2)C=C1
InChI: InChI=1S/C14H12O3/c15-12-5-3-10(4-6-12)1-2-11-7-13(16)9-14(17)8-11/h1-9,15-17H/b2-1+
Instrument: Thermo Scientific Q-Exactive Focus
Instrument type: LC-ESI-ITFT
Ms type: MS2
Ion mode: POSITIVE
Ionization: ESI
Collision energy: 60
Column name: Acquity CSHC18
Retention time: 2.015 min
Base peak: 229.08592
Precursor m/z: 229.08592
Precursor type: [M+H]+
m/z	relative intensity
53.0392	485
65.0391	999
91.0546	875
95.0495	884
107.0494	325
115.0545	668
128.0622	331
139.0542	368
152.0621	569
165.0699	329
