Mass spectrum: N-Alpha-acetyllysine; LC-ESI-ITFT; MS2; CE: 60;  [M+H]+
Name: N-Alpha-acetyllysine
Class: Organic acids and derivatives; Carboxylic acids and derivatives; Amino acids, peptides, and analogues
Formula: C8H16N2O3
Exact mass: 188.11609
SMILES: CC(=O)NC(CCCCN)C(O)=O
InChI: InChI=1S/C8H16N2O3/c1-6(11)10-7(8(12)13)4-2-3-5-9/h7H,2-5,9H2,1H3,(H,10,11)(H,12,13)
Instrument: Thermo Scientific Q-Exactive Focus
Instrument type: LC-ESI-ITFT
Ms type: MS2
Ion mode: POSITIVE
Ionization: ESI
Collision energy: 60
Column name: Acquity CSHC18
Retention time: 2.014 min
Base peak: 189.12337
Precursor m/z: 189.12337
Precursor type: [M+H]+
m/z	relative intensity
54.0344	19
55.0548	150
56.0501	999
65.0391	71
67.0547	176
68.0499	56
69.0578	164
84.0812	654
92.9664	20
133.1075	17
