Mass spectrum: Ginsenoside Rd; LC-ESI-QFT; MS2; CE: 15,30,45 (NCE);  [M+C2HF3O2-H]-
Name: Ginsenoside Rd
Class: NA
Formula: C48H82O18
Exact mass: 946.5501
SMILES: CC(C)=CCCC(C)(OC1OC(CO)C(O)C(O)C1O)C1CCC2(C)C1C(O)CC1C3(C)CCC(OC4OC(CO)C(O)C(O)C4OC4OC(CO)C(O)C(O)C4O)C(C)(C)C3CCC21C
InChI: InChI=1S/C48H82O18/c1-22(2)10-9-14-48(8,66-42-39(60)36(57)33(54)26(20-50)62-42)23-11-16-47(7)31(23)24(52)18-29-45(5)15-13-30(44(3,4)28(45)12-17-46(29,47)6)64-43-40(37(58)34(55)27(21-51)63-43)65-41-38(59)35(56)32(53)25(19-49)61-41/h10,23-43,49-60H,9,11-21H2,1-8H3
Instrument: QE Focus, Thermo Scientfic; UPLC I-Class, Waters
Instrument type: LC-ESI-QFT
Ms type: MS2
Ion mode: NEGATIVE
Ionization: ESI
Collision energy: 15,30,45 (NCE)
Column name: Acquity CSHC18
Retention time: 3.027 min
Base peak: 1059.5350
Precursor m/z: 1059.5350
Precursor type: [M+C2HF3O2-H]-
Precursor intensity: 3074619
m/z	relative intensity
81.4399	149
99.0069	204
195.505	192
380.4185	764
783.4921	999
