Mass spectrum: L-Valine; ESI-TOF; MS2; CE: 0.6458333;  [M+H]+
Name: L-Valine
Class: NA
Formula: C5H11NO2
Exact mass: 117.07898
SMILES: CC(C)C(N)C(O)=O
InChI: InChI=1S/C5H11NO2/c1-3(2)4(6)5(7)8/h3-4H,6H2,1-2H3,(H,7,8)
Instrument: waters xevo g2 TOF
Instrument type: ESI-TOF
Ms type: MS2
Ion mode: POSITIVE
Ionization: ESI
Collision energy: 0.6458333
Column name: Acquity CSHC18
Retention time: 0.572 min
Base peak: 118.08698
Precursor m/z: 118.08698
Precursor type: [M+H]+
m/z	relative intensity
72.0816	183
96.9619	4
97.9694	999
99.9699	4
102.1278	4
114.9714	4
114.9741	4
118.0868	4
119.0901	4
140.0678	4
143.9591	4
162.0507	100
163.9761	4
163.9773	4
172.977	4
186.9567	4
191.0251	4
198.0824	113
217.1051	4
222.9599	4
236.9399	4
236.9417	4
365.1049	4
405.1521	4
427.1393	4
