Mass spectrum: AL 8810 methyl ester; ESI-TOF; MS2; CE: 0.6458333;  [M+H]+
Name: AL 8810 methyl ester
Class: NA
Formula: C25H33FO4
Exact mass: 416.23629
SMILES: COC(=O)CCC/C=C\CC1C(O)C[C@H](F)[C@@H]1\C=C\[C@H](O)C1Cc2ccccc2C1
InChI: InChI=1S/C25H33FO4/c1-30-25(29)11-5-3-2-4-10-21-20(22(26)16-24(21)28)12-13-23(27)19-14-17-8-6-7-9-18(17)15-19/h2,4,6-9,12-13,19-24,27-28H,3,5,10-11,14-16H2,1H3/b4-2-,13-12+/t20-,21?,22+,23+,24?/m1/s1
Instrument: waters xevo g2 TOF
Instrument type: ESI-TOF
Ms type: MS2
Ion mode: POSITIVE
Ionization: ESI
Collision energy: 0.6458333
Column name: Acquity CSHC18
Retention time: 4.133 min
Base peak: 417.24429
Precursor m/z: 417.24429
Precursor type: [M+H]+
m/z	relative intensity
67.0529	16
70.9808	12
91.0553	187
92.0586	12
93.0699	45
95.0863	24
101.0598	22
105.0717	104
111.0815	8
115.0554	50
117.0712	461
118.0741	38
119.0859	68
123.0818	17
128.0633	199
129.0713	999
130.0747	91
131.0867	314
133.1017	45
135.0806	21
141.071	302
142.0559	76
143.0516	222
145.102	289
149.0961	21
153.0723	84
154.0794	41
155.0867	468
156.0917	73
157.1018	293
158.1062	28
159.1178	62
165.0714	80
166.0782	56
167.0877	238
168.0913	26
169.1021	335
170.1071	40
171.0571	232
172.1197	54
178.0795	58
179.0879	213
180.0894	43
181.1022	246
185.1141	142
187.0775	98
191.096	132
193.1128	83
194.1057	18
195.1185	194
196.1213	31
197.0967	50
199.1131	296
201.0754	36
203.0878	31
204.0913	39
205.114	176
206.1105	23
207.1295	85
208.1175	14
209.056	47
211.1099	20
213.1284	349
214.1321	51
215.0862	20
218.0958	20
219.128	336
220.1292	59
221.0968	8
223.1212	8
225.0417	5
228.0938	7
229.1135	44
231.0552	5
232.1239	19
233.1322	110
235.1117	40
237.1249	48
243.1283	62
244.1213	21
245.1188	131
246.1452	23
247.1124	71
248.12	10
250.1195	5
255.1156	34
257.1343	33
258.1369	11
259.1476	51
260.1557	48
261.158	11
263.1534	29
269.135	87
270.1362	24
271.1477	11
275.0712	27
281.1506	19
283.1466	100
284.1551	22
285.1633	76
286.1682	15
296.159	24
301.188	34
302.1976	10
307.1783	8
309.1637	21
311.1803	437
312.1833	95
313.1813	7
327.1806	12
329.1907	472
330.1941	109
331.147	21
333.0822	33
347.2005	136
348.2016	23
349.1981	46
350.2019	8
353.0816	50
356.0955	20
357.0983	26
359.1499	17
361.217	236
362.2187	97
367.1753	40
368.2138	8
379.2231	42
382.2265	7
385.1898	52
387.1647	18
398.2034	32
401.1223	12
403.2025	169
404.1622	80
406.1695	5
407.2061	10
407.707	6
417.1895	63
418.1824	35
419.1739	426
