Mass spectrum: D-Pantethine; ESI-TOF; MS2; CE: 6.0000000;  [M+H]+
Name: D-Pantethine
Class: NA
Formula: C22H42N4O8S2
Exact mass: 554.24441
SMILES: CC(C)(CO)C(O)C(=O)NCCC(=O)NCCSSCCNC(=O)CCNC(=O)C(O)C(C)(C)CO
InChI: InChI=1S/C22H42N4O8S2/c1-21(2,13-27)17(31)19(33)25-7-5-15(29)23-9-11-35-36-12-10-24-16(30)6-8-26-20(34)18(32)22(3,4)14-28/h17-18,27-28,31-32H,5-14H2,1-4H3,(H,23,29)(H,24,30)(H,25,33)(H,26,34)
Instrument: waters xevo g2 TOF
Instrument type: ESI-TOF
Ms type: MS2
Ion mode: POSITIVE
Ionization: ESI
Collision energy: 6.0000000
Column name: Acquity CSHC18
Retention time: 2.211 min
Base peak: 555.25241
Precursor m/z: 555.25241
Precursor type: [M+H]+
m/z	relative intensity
147.0621	2
155.0704	9
173.0813	120
215.5453	3
225.0845	6
232.0706	5
259.0871	10
268.0743	7
280.5765	3
287.0795	32
287.5821	9
290.1086	5
295.1262	28
297.1172	51
297.6042	26
298.1113	7
305.0998	3
306.0918	7
307.0897	4
349.0526	1
354.1511	6
425.189	752
426.1918	171
427.1867	175
428.188	30
429.182	6
478.1004	3
479.1057	3
506.1955	3
537.2414	120
538.2445	33
539.2412	8
540.2383	2
555.2518	999
556.2545	249
