Mass spectrum: CELLOBIOSE; LC-ESI-QFT; MS2; CE: 30eV;  [M-H]-
Name: CELLOBIOSE
Class: NA
Formula: C12H22O11
Exact mass: 342.11621
SMILES: OC[C@H]1O[C@@H](O[C@H]2[C@H](O)[C@@H](O)[C@H](O)O[C@@H]2CO)[C@H](O)[C@@H](O)[C@@H]1O
InChI: InChI=1S/C12H22O11/c13-1-3-5(15)6(16)9(19)12(22-3)23-10-4(2-14)21-11(20)8(18)7(10)17/h3-20H,1-2H2/t3-,4-,5-,6+,7-,8-,9-,10-,11-,12+/m1/s1
Instrument: Q-Exactive Orbitrap, Thermo Scientfic; Ultimate 3000 HPLC, Thermo Scientfic
Instrument type: LC-ESI-QFT
Ms type: MS2
Ion mode: NEGATIVE
Ionization: ESI
Collision energy: 30eV
Column name: Acquity CSHC18
Retention time: 0.620 min
Base peak: 341.1089
Precursor m/z: 341.1089
Precursor type: [M-H]-
Precursor intensity: 123
m/z	relative intensity
52.9401	3
53.9984	3
54.5517	3
55.0173	4
56.4611	3
57.0329	5
57.945	3
58.6726	3
59.0122	442
64.5428	4
69.0329	29
70.5394	4
71.0122	544
73.0278	760
73.4349	4
74.0311	7
76.965	4
80.6003	4
81.0329	58
83.0122	126
83.145	4
84.5164	4
85.0278	43
85.3347	4
87.0071	55
89.0227	426
95.0123	10
97.0278	578
98.0311	10
99.0435	36
101.0228	999
102.0262	21
112.2849	4
112.6728	4
113.0228	257
114.0262	6
115.0385	110
119.0334	186
122.6026	5
125.0228	85
131.0336	38
131.6183	4
143.0337	87
146.9373	7
149.0444	10
159.046	5
161.0377	7
161.0444	186
161.0507	8
162.0478	8
174.6106	6
177.0566	11
179.0554	28
189.2816	5
202.5018	5
208.5485	6
221.0659	57
224.8605	7
273.9798	6
274.4059	5
278.943	5
326.3753	5
340.0817	5
341.1269	97
342.4622	5
