Mass spectrum: 1,3-DIAMINOPROPANE; LC-ESI-QTOF; MS2; CE: 20;  [M+H]+
Name: 1,3-DIAMINOPROPANE
Class: NA
Formula: C3H10N2
Exact mass: 74.0844
SMILES: NCCCN
InChI: InChI=1S/C3H10N2/c4-2-1-3-5/h1-5H2
Instrument: Agilent 6530Â Q-TOF LC/MS
Instrument type: LC-ESI-QTOF
Ms type: MS2
Ion mode: POSITIVE
Ionization: ESI
Collision energy: 20
Column name: NA
Retention time: 0.200 min
Base peak: 75.09217
Precursor m/z: 75.09217
Precursor type: [M+H]+
Precursor intensity: 81.5
m/z	relative intensity
41.0391	66
42.0342	83
43.0423	288
58.0656	999
