Mass spectrum: umbelliferone; LC-ESI-QTOF; MS2; CE: 0.00;  [M+H]+
Name: umbelliferone
Class: NA
Formula: C9H6O3
Exact mass: 162.0317
SMILES: C1=CC(=CC2=C1C=CC(=O)O2)O
InChI: InChI=1S/C9H6O3/c10-7-3-1-6-2-4-9(11)12-8(6)5-7/h1-5,10H
Instrument: Bruker MicrOTOF-Q
Instrument type: LC-ESI-QTOF
Ms type: MS2
Ion mode: POSITIVE
Ionization: ESI
Collision energy: 0.00
Column name: Acquity CSHC18
Retention time: NA
Base peak: 163.0390
Precursor m/z: 163.0390
Precursor type: [M+H]+
m/z	relative intensity
100.9926	1
107.048	17
108.0502	2
119.0474	95
120.0514	9
134.0361	3
135.0429	38
136.0467	2
162.9526	3
163.0393	999
163.2792	1
164.0431	101
165.0448	1
