Mass spectrum: Hydroxyproline; ESI-TOF; MS2; CE: 0.6458333;  [M+H]+
Name: Hydroxyproline
Class: NA
Formula: C5H9NO3
Exact mass: 131.05824
SMILES: OC1CNC(C1)C(O)=O
InChI: InChI=1S/C5H9NO3/c7-3-1-4(5(8)9)6-2-3/h3-4,6-7H,1-2H2,(H,8,9)
Instrument: waters xevo g2 TOF
Instrument type: ESI-TOF
Ms type: MS2
Ion mode: POSITIVE
Ionization: ESI
Collision energy: 0.6458333
Column name: Acquity CSHC18
Retention time: 0.535 min
Base peak: 132.06624
Precursor m/z: 132.06624
Precursor type: [M+H]+
m/z	relative intensity
68.0503	237
86.0607	999
87.0641	47
90.9479	5
99.9698	152
102.0938	10
132.0661	330
145.0178	39
158.0032	18
172.862	104
187.9942	15
217.1046	4
226.0404	66
246.8629	16
272.0462	51
287.0833	6
301.0722	15
316.0392	6
365.1049	20
447.0949	17
588.0832	4
