Mass spectrum: Isocitric acid; LC-ESI-QTOF; MS2; CE: 30;  [M-H]-
Name: Isocitric acid
Class: NA
Formula: C6H8O7
Exact mass: 192.0270
SMILES: C(C(C(C(=O)O)O)C(=O)O)C(=O)O
InChI: InChI=1S/C6H8O7/c7-3(8)1-2(5(10)11)4(9)6(12)13/h2,4,9H,1H2,(H,7,8)(H,10,11)(H,12,13)
Instrument: impact II
Instrument type: LC-ESI-QTOF
Ms type: MS2
Ion mode: NEGATIVE
Ionization: ESI
Collision energy: 30
Column name: Acquity CSHC18
Retention time: 1.872 min
Base peak: 191.0196
Precursor m/z: 191.0196
Precursor type: [M-H]-
m/z	relative intensity
72.9931	606
73.0296	956
85.0295	586
99.0091	310
101.0243	182
111.0087	999
117.0191	230
