Mass spectrum: Serine; LC-ESI-QTOF; MS2; CE: 30;  [M+H]+
Name: Serine
Class: NA
Formula: C3H7NO3
Exact mass: 105.04259
SMILES: C(C(C(=O)O)N)O
InChI: InChI=1S/C3H7NO3/c4-2(1-5)3(6)7/h2,5H,1,4H2,(H,6,7)
Instrument: impact II
Instrument type: LC-ESI-QTOF
Ms type: MS2
Ion mode: POSITIVE
Ionization: ESI
Collision energy: 30
Column name: Acquity CSHC18
Retention time: 1.848 min
Base peak: 106.05010
Precursor m/z: 106.05010
Precursor type: [M+H]+
m/z	relative intensity
45.0346	4
46.0294	21
51.0236	6
57.0219	5
58.0658	11
58.2783	4
59.073	4
60.0452	999
60.0813	9
61.0487	25
70.0293	6
75.032	5
88.0369	3
