Mass spectrum: Prostaglandin F2-beta (tromethamine salt); ESI-TOF; MS2; CE: 0.6458333;  [M+H]+
Name: Prostaglandin F2-beta (tromethamine salt)
Class: NA
Formula: C20H34O5
Exact mass: 354.24062
SMILES: O[C@H]1[C@H](C/C=C\CCCC(O)=O)[C@@H](/C=C/[C@@H](O)CCCCC)[C@H](O)C1
InChI: InChI=1S/C20H34O5/c1-2-3-6-9-15(21)12-13-17-16(18(22)14-19(17)23)10-7-4-5-8-11-20(24)25/h4,7,12-13,15-19,21-23H,2-3,5-6,8-11,14H2,1H3,(H,24,25)/b7-4-,13-12+/t15-,16+,17+,18+,19+/m0/s1
Instrument: waters xevo g2 TOF
Instrument type: ESI-TOF
Ms type: MS2
Ion mode: POSITIVE
Ionization: ESI
Collision energy: 0.6458333
Column name: Acquity CSHC18
Retention time: 3.464 min
Base peak: 355.24862
Precursor m/z: 355.24862
Precursor type: [M+H]+
m/z	relative intensity
83.049	45
91.0552	419
93.0706	358
95.0875	90
105.0709	467
107.0684	157
117.0708	324
119.0165	199
121.1023	145
129.071	630
130.0767	74
131.0868	908
133.1022	223
135.1172	82
141.0706	182
143.0867	546
145.1004	521
147.0806	145
149.0975	94
155.0863	240
157.1022	607
159.1185	181
161.0962	87
169.1026	339
171.1179	546
173.1312	5
175.1125	133
177.0909	39
181.1024	151
183.0988	75
185.1141	268
187.1121	173
189.1291	5
191.1097	5
195.1165	116
197.135	92
199.1131	228
201.1475	115
203.1613	14
205.1238	5
213.1283	114
217.1412	121
221.1524	5
227.1431	53
231.1408	5
239.1772	5
241.1969	254
255.192	31
257.1909	171
259.2051	5
263.201	5
265.214	5
266.1945	5
273.2183	5
275.2007	5
276.202	5
277.2102	5
283.2063	358
284.2081	66
285.2192	25
291.2296	5
293.2117	5
299.2054	73
300.2032	5
301.2173	999
302.2196	183
303.23	128
304.2341	16
317.2135	46
318.1674	57
319.2271	5
320.231	5
321.2362	5
329.1246	92
331.1576	836
333.2413	5
335.2236	5
336.2308	5
337.2385	5
338.2409	5
343.2481	36
346.1239	451
347.1312	798
348.134	206
349.1347	219
350.1291	47
356.2095	5
356.71	5
