Mass spectrum: Atropine; LC-ESI-QTOF; MS2; CE: 35eV;  [M+H]+
Name: Atropine
Class: Tropane_alkaloid
Formula: C17H23NO3
Exact mass: 289.1678
SMILES: CN1C2CCC1CC(C2)OC(C(CO)C3=CC=CC=C3)=O
InChI: InChI=1S/C17H23NO3/c1-18-13-7-8-14(18)10-15(9-13)21-17(20)16(11-19)12-5-3-2-4-6-12/h2-6,13-16,19H,7-11H2,1H3
Instrument: maXis impact HD, Bruker; Dionex 3000, Thermo Scientific
Instrument type: LC-ESI-QTOF
Ms type: MS2
Ion mode: POSITIVE
Ionization: ESI
Collision energy: 35eV
Column name: Acquity CSHC18
Retention time: 6.749 min
Base peak: 290.1744
Precursor m/z: 290.1744
Precursor type: [M+H]+
Precursor intensity: 1274227
m/z	relative intensity
91.0538	23
93.0695	24
94.0723	26
95.0848	37
96.0804	47
103.0536	133
121.0639	141
124.1115	308
290.1737	999
