Mass spectrum: 3,4-DIHYDROXYPHENYLACETATE; LC-ESI-QTOF; MS2; CE: 20;  [M-H]-
Name: 3,4-DIHYDROXYPHENYLACETATE
Class: NA
Formula: C8H8O4
Exact mass: 168.04226
SMILES: OC(=O)CC1=CC=C(O)C(O)=C1
InChI: InChI=1S/C8H8O4/c9-6-2-1-5(3-7(6)10)4-8(11)12/h1-3,9-10H,4H2,(H,11,12)
Instrument: Agilent 6530Â Q-TOF LC/MS
Instrument type: LC-ESI-QTOF
Ms type: MS2
Ion mode: NEGATIVE
Ionization: ESI
Collision energy: 20
Column name: NA
Retention time: 0.200 min
Base peak: 167.03541
Precursor m/z: 167.03541
Precursor type: [M-H]-
Precursor intensity: 138
m/z	relative intensity
41.0091	129
67.0198	162
77.0421	170
81.031	177
93.0369	190
95.05	315
122.0474	357
123.0727	999
