Mass spectrum: C12 Carnitine; ESI-TOF; MS2; CE: 6.0000000;  [M+H]+
Name: C12 Carnitine
Class: NA
Formula: C19H37NO4
Exact mass: 343.27226
SMILES: [H]C([H])([H])C([H])([H])C([H])([H])C([H])([H])C([H])([H])C([H])([H])C([H])([H])C([H])([H])C([H])([H])C([H])([H])C([H])([H])C(=O)OC([H])(C([H])([H])C(=O)[O-])C([H])([H])[N+](C([H])([H])[H])(C([H])([H])[H])C([H])([H])[H]
InChI: InChI=1S/C19H37NO4/c1-5-6-7-8-9-10-11-12-13-14-19(23)24-17(15-18(21)22)16-20(2,3)4/h17H,5-16H2,1-4H3
Instrument: waters xevo g2 TOF
Instrument type: ESI-TOF
Ms type: MS2
Ion mode: POSITIVE
Ionization: ESI
Collision energy: 6.0000000
Column name: Acquity CSHC18
Retention time: 3.863 min
Base peak: 344.28026
Precursor m/z: 344.28026
Precursor type: [M+H]+
m/z	relative intensity
85.0297	1
285.2069	16
286.2104	3
344.2801	999
344.4976	1
345.2836	216
346.2862	31
347.2877	3
366.2619	1
687.5529	8
688.5551	3
709.5344	1
