Mass spectrum: C18 Ceramide (d18:1/18:0); ESI-TOF; MS2; CE: 6.0000000;  [M+H]+
Name: C18 Ceramide (d18:1/18:0)
Class: NA
Formula: C36H71NO3
Exact mass: 565.54340
SMILES: [H]OC([H])([H])C([H])(N([H])C(=O)C([H])([H])C([H])([H])C([H])([H])C([H])([H])C([H])([H])C([H])([H])C([H])([H])C([H])([H])C([H])([H])C([H])([H])C([H])([H])C([H])([H])C([H])([H])C([H])([H])C([H])([H])C([H])([H])C([H])([H])[H])C([H])(O[H])C([H])=C([H])C([H])([H])C([H])([H])C([H])([H])C([H])([H])C([H])([H])C([H])([H])C([H])([H])C([H])([H])C([H])([H])C([H])([H])C([H])([H])C([H])([H])C([H])([H])[H]
InChI: InChI=1S/C36H71NO3/c1-3-5-7-9-11-13-15-17-18-20-22-24-26-28-30-32-36(40)37-34(33-38)35(39)31-29-27-25-23-21-19-16-14-12-10-8-6-4-2/h29,31,34-35,38-39H,3-28,30,32-33H2,1-2H3,(H,37,40)
Instrument: waters xevo g2 TOF
Instrument type: ESI-TOF
Ms type: MS2
Ion mode: POSITIVE
Ionization: ESI
Collision energy: 6.0000000
Column name: Acquity CSHC18
Retention time: 11.269 min
Base peak: 566.55140
Precursor m/z: 566.55140
Precursor type: [M+H]+
m/z	relative intensity
127.9793	22
173.9619	6
278.7427	18
279.2434	11
284.7425	17
285.2434	10
293.7476	16
302.7529	92
303.2559	51
303.7568	9
537.394	17
548.5411	999
549.5443	402
550.5493	87
566.5511	565
567.5551	229
