Mass spectrum: D-Galacturonic acid; ESI-TOF; MS2; CE: 6.0000000;  [M+H]+
Name: D-Galacturonic acid
Class: NA
Formula: C6H10O7
Exact mass: 194.04265
SMILES: O=C[C@H](O)[C@@H](O)[C@@H](O)[C@H](O)C(=O)O
InChI: InChI=1S/C6H10O7/c7-1-2(8)3(9)4(10)5(11)6(12)13/h1-5,8-11H,(H,12,13)/t2-,3+,4+,5-/m0/s1
Instrument: waters xevo g2 TOF
Instrument type: ESI-TOF
Ms type: MS2
Ion mode: POSITIVE
Ionization: ESI
Collision energy: 6.0000000
Column name: Acquity CSHC18
Retention time: 0.544 min
Base peak: 195.05065
Precursor m/z: 195.05065
Precursor type: [M+H]+
m/z	relative intensity
97.0288	54
113.9404	2
126.9478	2
141.0182	65
172.9758	70
174.9686	23
185.9621	128
196.0128	174
199.0209	99
205.0181	372
205.5204	53
214.0232	260
217.0313	999
218.066	165
232.9972	47
247.9627	82
289.9722	139
293.031	66
302.0398	77
307.9826	584
308.988	110
311.0433	95
411.0734	62
427.0368	65
442.0045	158
443.008	105
