Mass spectrum: L-Tyrosine; LC-ESI-ITFT; MS2; CE: 60;  [M-H]-
Name: L-Tyrosine
Class: Organic acids and derivatives; Carboxylic acids and derivatives; Amino acids, peptides, and analogues
Formula: C9H11NO3
Exact mass: 181.07389
SMILES: N[C@@H](CC1=CC=C(O)C=C1)C(O)=O
InChI: InChI=1S/C9H11NO3/c10-8(9(12)13)5-6-1-3-7(11)4-2-6/h1-4,8,11H,5,10H2,(H,12,13)/t8-/m0/s1
Instrument: Thermo Scientific Q-Exactive Focus
Instrument type: LC-ESI-ITFT
Ms type: MS2
Ion mode: NEGATIVE
Ionization: ESI
Collision energy: 60
Column name: Acquity CSHC18
Retention time: 2.026 min
Base peak: 180.06662
Precursor m/z: 180.06662
Precursor type: [M-H]-
m/z	relative intensity
57.9745	999
59.9702	47
78.9578	96
79.9561	614
80.9156	48
92.5136	38
94.9918	56
120.8661	30
169.0015	31
169.0568	30
