Mass spectrum: dihydromorin; LC-ESI-ITFT; MS2; CE: 0.3;  [M-H]-
Name: dihydromorin
Class: flavonols
Formula: C15H12O7
Exact mass: 304.0583
SMILES: C1=CC(=C(C=C1O)O)C2C(C(=O)C3=C(C=C(C=C3O2)O)O)O
InChI: InChI=1S/C15H12O7/c16-6-1-2-8(9(18)3-6)15-14(21)13(20)12-10(19)4-7(17)5-11(12)22-15/h1-5,14-19,21H
Instrument: LTQ-Orbitrap XL hybrid mass spectrometer (Thermo Scientific)
Instrument type: LC-ESI-ITFT
Ms type: MS2
Ion mode: NEGATIVE
Ionization: ESI
Collision energy: 0.3
Column name: Acquity CSHC18
Retention time: 5.532 min
Base peak: 303.0510
Precursor m/z: 303.0510
Precursor type: [M-H]-
Precursor intensity: 11654170
m/z	relative intensity
86.2801	5
91.4985	3
104.2682	3
116.5321	3
125.025	999
125.5031	4
149.0237	7
151.0047	4
152.3807	4
166.9782	7
177.0197	342
178.4786	5
215.0714	8
217.0507	173
259.0612	325
275.0561	473
285.0404	327
303.0508	146
