Mass spectrum: vanillin; LC-ESI-QTOF; MS2; CE: 15.00;  [M+H]+
Name: vanillin
Class: NA
Formula: C8H8O3
Exact mass: 152.0473
SMILES: COC1=C(C=CC(=C1)C=O)O
InChI: InChI=1S/C8H8O3/c1-11-8-4-6(5-9)2-3-7(8)10/h2-5,10H,1H3
Instrument: Bruker MicrOTOF-Q
Instrument type: LC-ESI-QTOF
Ms type: MS2
Ion mode: POSITIVE
Ionization: ESI
Collision energy: 15.00
Column name: Acquity CSHC18
Retention time: NA
Base peak: 153.0546
Precursor m/z: 153.0546
Precursor type: [M+H]+
m/z	relative intensity
65.034	4
92.958	3
93.0301	568
93.2344	3
93.266	3
94.0344	67
95.038	4
97.0562	3
98.0647	3
107.0442	11
109.026	56
110.0362	999
110.1533	3
111.0399	33
112.0158	3
112.0536	4
123.0394	25
124.0516	64
124.4439	4
125.0588	732
125.3323	4
126.063	78
127.0614	3
129.8271	5
135.0697	4
138.032	7
151.0362	65
151.0957	6
152.0496	4
153.0534	161
154.0543	6
155.0517	4
182.012	3
195.0745	5
197.0027	3
215.0751	5
225.1213	4
241.033	3
331.3213	3
353.884	4
545.15	5
