Mass spectrum: CREATININE; LC-ESI-QTOF; MS2; CE: 20;  [M+H]+
Name: CREATININE
Class: NA
Formula: C4H7N3O
Exact mass: 113.0589
SMILES: CN1CC(=O)NC1=N
InChI: InChI=1S/C4H7N3O/c1-7-2-3(8)6-4(7)5/h2H2,1H3,(H2,5,6,8)
Instrument: Agilent 6530Â Q-TOF LC/MS
Instrument type: LC-ESI-QTOF
Ms type: MS2
Ion mode: POSITIVE
Ionization: ESI
Collision energy: 20
Column name: NA
Retention time: 0.200 min
Base peak: 114.06776
Precursor m/z: 114.06776
Precursor type: [M+H]+
Precursor intensity: 162.5
m/z	relative intensity
41.0378	27
43.0315	129
44.0123	34
44.0499	999
69.0726	34
72.0415	32
79.0532	53
114.0775	57
