Mass spectrum: ANSERINE; LC-ESI-QFT; MS2; CE: 30eV;  [M+H]+
Name: ANSERINE
Class: NA
Formula: C10H16N4O3
Exact mass: 240.12224
SMILES: CN1C=NC=C1C[C@H](NC(=O)CCN)C(O)=O
InChI: InChI=1S/C10H16N4O3/c1-14-6-12-5-7(14)4-8(10(16)17)13-9(15)2-3-11/h5-6,8H,2-4,11H2,1H3,(H,13,15)(H,16,17)/t8-/m0/s1
Instrument: Q-Exactive Orbitrap, Thermo Scientfic; Ultimate 3000 HPLC, Thermo Scientfic
Instrument type: LC-ESI-QFT
Ms type: MS2
Ion mode: POSITIVE
Ionization: ESI
Collision energy: 30eV
Column name: Acquity CSHC18
Retention time: 0.567 min
Base peak: 241.1295
Precursor m/z: 241.1295
Precursor type: [M+H]+
Precursor intensity: 159
m/z	relative intensity
110.0761	112
112.0638	154
118.2523	207
151.0971	492
154.0837	928
171.0932	999
