Mass spectrum: Sedoheptulose; ESI-TOF; MS2; CE: 6.0000000;  [M+H]+
Name: Sedoheptulose
Class: NA
Formula: C7H14O7
Exact mass: 210.07395
SMILES: OCC(O)C(O)C(O)C(O)C(=O)CO
InChI: InChI=1S/C7H14O7/c8-1-3(10)5(12)7(14)6(13)4(11)2-9/h3,5-10,12-14H,1-2H2
Instrument: waters xevo g2 TOF
Instrument type: ESI-TOF
Ms type: MS2
Ion mode: POSITIVE
Ionization: ESI
Collision energy: 6.0000000
Column name: Acquity CSHC18
Retention time: 0.570 min
Base peak: 211.08195
Precursor m/z: 211.08195
Precursor type: [M+H]+
m/z	relative intensity
85.0289	69
97.029	58
99.0448	16
111.0446	52
113.9399	1
115.039	27
127.0388	50
129.0552	100
138.99	20
139.0395	57
145.0489	17
157.0496	318
158.0032	45
158.0033	39
170.9742	1
175.0603	179
176.0639	13
193.071	31
197.9603	1
198.0775	43
198.9687	1
199.0792	1
210.0976	252
211.1013	13
212.0449	43
215.0531	999
216.0561	49
227.9724	75
245.984	1
246.9903	1
291.9888	222
292.9962	138
306.0042	27
307.0081	1
308.0758	44
316.0635	23
385.1355	24
407.1164	253
409.0922	34
436.0521	12
438.0451	345
439.0518	96
630.1107	71
631.1097	18
