Mass spectrum: THIAMINE MONOPHOSPHATE; LC-ESI-QFT; MS2; CE: 30eV;  [M+H]+
Name: THIAMINE MONOPHOSPHATE
Class: NA
Formula: C12H17N4O4PS
Exact mass: 344.07081
SMILES: CC1=C(CCOP(O)([O-])=O)SC=[N+]1CC1=CN=C(C)N=C1N
InChI: InChI=1S/C12H17N4O4PS/c1-8-11(3-4-20-21(17,18)19)22-7-16(8)6-10-5-14-9(2)15-12(10)13/h5,7H,3-4,6H2,1-2H3,(H3-,13,14,15,17,18,19)
Instrument: Q-Exactive Orbitrap, Thermo Scientfic; Ultimate 3000 HPLC, Thermo Scientfic
Instrument type: LC-ESI-QFT
Ms type: MS2
Ion mode: POSITIVE
Ionization: ESI
Collision energy: 30eV
Column name: Acquity CSHC18
Retention time: 0.568 min
Base peak: 345.0781
Precursor m/z: 345.0781
Precursor type: [M+H]+
Precursor intensity: 196
m/z	relative intensity
52.6558	3
52.803	2
54.019	2
54.0346	6
57.3472	2
70.4416	3
72.6701	3
74.0307	2
80.0503	4
80.9484	3
81.0455	135
84.0205	3
84.3836	3
86.6021	3
97.6682	3
108.4795	3
113.0219	4
123.0687	35
123.0751	210
126.0377	659
127.0411	18
143.0322	40
149.4016	4
189.0486	4
224.0147	999
225.0183	41
247.1014	5
255.0957	90
345.0787	17
345.1281	82
