Mass spectrum: Ribitol; LC-ESI-ITFT; MS2; CE: 30;  [M-H]-
Name: Ribitol
Class: Organic oxygen compounds; Organooxygen compounds; Carbohydrates and carbohydrate conjugates
Formula: C5H12O5
Exact mass: 152.06847
SMILES: OC[C@H](O)[C@H](O)[C@H](O)CO
InChI: InChI=1S/C5H12O5/c6-1-3(8)5(10)4(9)2-7/h3-10H,1-2H2/t3-,4+,5-
Instrument: Thermo Scientific Q-Exactive Focus
Instrument type: LC-ESI-ITFT
Ms type: MS2
Ion mode: NEGATIVE
Ionization: ESI
Collision energy: 30
Column name: Acquity CSHC18
Retention time: 0.925 min
Base peak: 151.06120
Precursor m/z: 151.06120
Precursor type: [M-H]-
m/z	relative intensity
55.0178	276
58.0048	34
59.0127	697
71.0126	999
72.9919	78
83.0126	21
99.7095	23
126.751	18
128.2672	19
136.9443	19
