Mass spectrum: N-Octanoyl-L-homoserine lactone; LC-ESI-ITFT; MS2; CE: 100;  [M+H]+
Name: N-Octanoyl-L-homoserine lactone
Class: NA
Formula: C12H21NO3
Exact mass: 227.15214
SMILES: CCCCCCCC(=O)N[C@H]1CCOC1=O
InChI: InChI=1S/C12H21NO3/c1-2-3-4-5-6-7-11(14)13-10-8-9-16-12(10)15/h10H,2-9H2,1H3,(H,13,14)/t10-/m0/s1
Instrument: Thermo Scientific Q-Exactive Focus
Instrument type: LC-ESI-ITFT
Ms type: MS2
Ion mode: POSITIVE
Ionization: ESI
Collision energy: 100
Column name: Acquity CSHC18
Retention time: 2.573 min
Base peak: 228.15942
Precursor m/z: 228.15942
Precursor type: [M+H]+
m/z	relative intensity
53.0028	999
53.4934	154
59.9649	145
123.8307	150
146.9382	139
159.6852	131
201.0109	150
214.9849	129
215.3337	139
224.4246	147
