Mass spectrum: Ginkgolide C; LC-ESI-QFT; MS2; CE: 15,30,45 (NCE);  [M+Na]+
Name: Ginkgolide C
Class: NA
Formula: C20H24O11
Exact mass: 440.1319
SMILES: CC1C(=O)OC2C(O)C34C5OC(=O)C3(OC3OC(=O)C(O)C43C(C5O)C(C)(C)C)C12O
InChI: InChI=1S/C20H24O11/c1-5-12(24)28-11-8(22)18-10-6(21)7(16(2,3)4)17(18)9(23)13(25)30-15(17)31-20(18,14(26)29-10)19(5,11)27/h5-11,15,21-23,27H,1-4H3
Instrument: QE Focus, Thermo Scientfic; UPLC I-Class, Waters
Instrument type: LC-ESI-QFT
Ms type: MS2
Ion mode: POSITIVE
Ionization: ESI
Collision energy: 15,30,45 (NCE)
Column name: Acquity CSHC18
Retention time: 1.552 min
Base peak: 463.1219
Precursor m/z: 463.1219
Precursor type: [M+Na]+
Precursor intensity: 12796420
m/z	relative intensity
51.337	2
52.9734	2
53.4242	2
54.2786	2
55.9443	2
58.2423	3
62.0942	2
71.6338	2
75.7728	2
93.2174	2
116.3673	2
125.8086	3
147.4544	3
154.4968	3
231.5845	2
280.8809	2
302.1049	3
349.2816	3
382.3853	5
382.4275	4
463.1211	999
