Mass spectrum: Tagitinin A; LC-ESI-ITFT; MS2; CE: 50eV;  [M+H]+
Name: Tagitinin A
Class: Sesquiterpenelactone; Germacrolide
Formula: C19H28O7
Exact mass: 368.1835
SMILES: C[C@H]1C[C@@H]2[C@@H]([C@@H](C[C@@]3([C@H](C[C@]1(O3)O)O)C)OC(=O)C(C)C)C(=C)C(=O)O2
InChI: InChI=1S/C19H28O7/c1-9(2)16(21)25-13-7-18(5)14(20)8-19(23,26-18)10(3)6-12-15(13)11(4)17(22)24-12/h9-10,12-15,20,23H,4,6-8H2,1-3,5H3/t10-,12+,13+,14-,15-,18+,19+/m0/s1
Instrument: Q Exactive Plus, ThermoFisher Scientific
Instrument type: LC-ESI-ITFT
Ms type: MS2
Ion mode: POSITIVE
Ionization: ESI
Collision energy: 50eV
Column name: Acquity CSHC18
Retention time: 5.622 min
Base peak: 369.1917
Precursor m/z: 369.1917
Precursor type: [M+H]+
Precursor intensity: 862810000
m/z	relative intensity
55.1777	156
68.4668	213
97.0468	305
121.0831	512
135.0627	515
145.0829	542
147.0984	672
171.0994	680
173.0777	699
175.0939	733
189.1092	929
191.0892	999
