Mass spectrum: H-Leu-Leu-OH; LC-ESI-QTOF; MS2; CE: 29.20;  [2M+H]+
Name: H-Leu-Leu-OH
Class: NA
Formula: C12H24N2O3
Exact mass: 244.1787
SMILES: CC(C)CC(C(=O)NC(CC(C)C)C(=O)O)N
InChI: InChI=1S/C12H24N2O3/c1-7(2)5-9(13)11(15)14-10(12(16)17)6-8(3)4/h7-10H,5-6,13H2,1-4H3,(H,14,15)(H,16,17)
Instrument: Bruker MicrOTOF-Q
Instrument type: LC-ESI-QTOF
Ms type: MS2
Ion mode: POSITIVE
Ionization: ESI
Collision energy: 29.20
Column name: Acquity CSHC18
Retention time: NA
Base peak: 489.3647
Precursor m/z: 489.3647
Precursor type: [2M+H]+
m/z	relative intensity
181.2	4
183.15	3
183.19	3
199.18	77
200.18	16
205.44	3
209.15	4
227.18	15
244.94	4
245.19	999
245.55	4
245.94	3
246.19	156
246.46	3
246.93	3
247.19	8
307.07	3
540.49	3
