Mass spectrum: L-Phenylalanine; LC-ESI-QTOF; MS2; CE: 15.00;  [M-H]-
Name: L-Phenylalanine
Class: NA
Formula: C9H11NO2
Exact mass: 165.0790
SMILES: C1=CC=C(C=C1)CC(C(=O)O)N
InChI: InChI=1S/C9H11NO2/c10-8(9(11)12)6-7-4-2-1-3-5-7/h1-5,8H,6,10H2,(H,11,12)
Instrument: Bruker MicrOTOF-Q
Instrument type: LC-ESI-QTOF
Ms type: MS2
Ion mode: NEGATIVE
Ionization: ESI
Collision energy: 15.00
Column name: Acquity CSHC18
Retention time: NA
Base peak: 164.0717
Precursor m/z: 164.0717
Precursor type: [M-H]-
m/z	relative intensity
48.94	119
56.59	119
60.9	91
65.48	71
67.29	71
67.87	75
70.33	122
79.6	98
81.11	163
87.01	129
103.06	782
103.4	78
118.06	213
123.85	85
132.13	98
132.17	88
133.88	108
137.2	119
147.04	999
147.46	75
148.08	135
159.98	125
164.07	169
188.92	115
203.66	88
211.77	81
233.32	98
242.23	68
245.52	81
257.58	91
314.53	98
318.48	98
321.86	71
333.77	75
361.77	98
371.65	78
403.46	88
415.14	68
518.15	98
525.31	68
526.95	112
568.14	88
605.39	88
650.36	98
658.92	102
715.99	78
729.76	68
795.59	115
917.01	71
927.14	75
999.61	146
