Mass spectrum: 1,2-dilinolenoyl-sn-glycero-3-phosphocholine; ESI-TOF; MS2; CE: 0.6458333;  [M+H]+
Name: 1,2-dilinolenoyl-sn-glycero-3-phosphocholine
Class: NA
Formula: C44H76NO8P
Exact mass: 777.53086
SMILES: [H]C(=C([H])C([H])([H])C([H])=C([H])C([H])([H])C([H])([H])C([H])([H])C([H])([H])C([H])([H])C([H])([H])C([H])([H])C(=O)OC([H])([H])C([H])(OC(=O)C([H])([H])C([H])([H])C([H])([H])C([H])([H])C([H])([H])C([H])([H])C([H])([H])C([H])=C([H])C([H])([H])C([H])=C([H])C([H])([H])C([H])=C([H])C([H])([H])C([H])([H])[H])C([H])([H])OP(=O)([O-])OC([H])([H])C([H])([H])[N+](C([H])([H])[H])(C([H])([H])[H])C([H])([H])[H])C([H])([H])C([H])=C([H])C([H])([H])C([H])([H])[H]
InChI: InChI=1S/C44H76NO8P/c1-6-8-10-12-14-16-18-20-22-24-26-28-30-32-34-36-43(46)50-40-42(41-52-54(48,49)51-39-38-45(3,4)5)53-44(47)37-35-33-31-29-27-25-23-21-19-17-15-13-11-9-7-2/h8-11,14-17,20-23,42H,6-7,12-13,18-19,24-41H2,1-5H3
Instrument: waters xevo g2 TOF
Instrument type: ESI-TOF
Ms type: MS2
Ion mode: POSITIVE
Ionization: ESI
Collision energy: 0.6458333
Column name: Acquity CSHC18
Retention time: 10.143 min
Base peak: 778.53886
Precursor m/z: 778.53886
Precursor type: [M+H]+
m/z	relative intensity
86.0975	44
97.9699	2
104.1083	6
121.1016	2
124.9998	13
146.9827	2
163.0163	6
184.0738	999
185.0774	64
186.0788	10
317.1794	73
318.1831	35
321.1724	3
333.1512	3
441.2409	12
442.2434	2
500.3136	268
501.317	82
502.3191	8
518.3259	4
595.4725	16
596.4743	7
597.481	3
617.4538	9
618.458	8
658.4022	16
658.9022	7
659.4029	6
741.4464	47
742.4494	20
743.452	3
778.5375	643
779.5414	328
