Mass spectrum: Acetovanillone; LC-ESI-QTOF; MS2; CE: 15;  [M-H]-
Name: Acetovanillone
Class: NA
Formula: C9H10O3
Exact mass: 166.0630
SMILES: CC(=O)C1=CC(=C(C=C1)O)OC
InChI: InChI=1S/C9H10O3/c1-6(10)7-3-4-8(11)9(5-7)12-2/h3-5,11H,1-2H3
Instrument: Bruker MicrOTOF-Q
Instrument type: LC-ESI-QTOF
Ms type: MS2
Ion mode: NEGATIVE
Ionization: ESI
Collision energy: 15
Column name: Acquity CSHC18
Retention time: NA
Base peak: 165.0557
Precursor m/z: 165.0557
Precursor type: [M-H]-
m/z	relative intensity
95.5986	3
108.0211	12
122.0384	548
122.2197	2
123.0403	39
135.0108	5
149.4793	5
149.9327	9
150.0328	999
151.0362	90
165.0577	7
