Mass spectrum: Cinchonidine; LC-ESI-QTOF; MS2; CE: 15.00;  [M+H]+
Name: Cinchonidine
Class: NA
Formula: C19H22N2O
Exact mass: 294.1732
SMILES: C=CC1CN2CCC1CC2C(C3=CC=NC4=CC=CC=C34)O
InChI: InChI=1S/C19H22N2O/c1-2-13-12-21-10-8-14(13)11-18(21)19(22)16-7-9-20-17-6-4-3-5-15(16)17/h2-7,9,13-14,18-19,22H,1,8,10-12H2
Instrument: Bruker MicrOTOF-Q
Instrument type: LC-ESI-QTOF
Ms type: MS2
Ion mode: POSITIVE
Ionization: ESI
Collision energy: 15.00
Column name: Acquity CSHC18
Retention time: NA
Base peak: 295.1805
Precursor m/z: 295.1805
Precursor type: [M+H]+
m/z	relative intensity
277.1713	26
278.1743	141
295.1869	422
296.1858	999
