Mass spectrum: Umbelliferone; LC-ESI-ITFT; MS2; CE: 10;  [M+H]+
Name: Umbelliferone
Class: Phenylpropanoids and polyketides; Coumarins and derivatives; Hydroxycoumarins
Formula: C9H6O3
Exact mass: 162.03169
SMILES: OC1=CC2=C(C=C1)C=CC(=O)O2
InChI: InChI=1S/C9H6O3/c10-7-3-1-6-2-4-9(11)12-8(6)5-7/h1-5,10H
Instrument: Thermo Scientific Q-Exactive Focus
Instrument type: LC-ESI-ITFT
Ms type: MS2
Ion mode: POSITIVE
Ionization: ESI
Collision energy: 10
Column name: Acquity CSHC18
Retention time: 0.348 min
Base peak: 163.03897
Precursor m/z: 163.03897
Precursor type: [M+H]+
m/z	relative intensity
79.0545	1
91.0545	21
107.0493	46
119.0492	57
135.044	6
163.0332	1
163.0389	999
