Mass spectrum: Creatine; LC-ESI-ITFT; MS2; CE: 100;  [M+H]+
Name: Creatine
Class: Organic acids and derivatives; Carboxylic acids and derivatives; Amino acids, peptides, and analogues
Formula: C4H9N3O2
Exact mass: 131.06948
SMILES: CN(CC(O)=O)C(N)=N
InChI: InChI=1S/C4H9N3O2/c1-7(4(5)6)2-3(8)9/h2H2,1H3,(H3,5,6)(H,8,9)
Instrument: Thermo Scientific Q-Exactive Focus
Instrument type: LC-ESI-ITFT
Ms type: MS2
Ion mode: POSITIVE
Ionization: ESI
Collision energy: 100
Column name: Acquity CSHC18
Retention time: 2.415 min
Base peak: 132.07675
Precursor m/z: 132.07675
Precursor type: [M+H]+
m/z	relative intensity
61.3727	842
73.1029	864
78.7598	846
83.3549	801
88.0901	999
92.5243	830
100.2324	811
101.5015	906
114.9301	814
115.1936	871
