Mass spectrum: 3,4-Dimethoxyphenethylamine; LC-ESI-QTOF; MS2; CE: 15.00;  [M-NH3+H]+
Name: 3,4-Dimethoxyphenethylamine
Class: NA
Formula: C10H15NO2
Exact mass: 181.1103
SMILES: COC1=C(C=C(C=C1)CCN)OC
InChI: InChI=1S/C10H15NO2/c1-12-9-4-3-8(5-6-11)7-10(9)13-2/h3-4,7H,5-6,11H2,1-2H3
Instrument: Bruker MicrOTOF-Q
Instrument type: LC-ESI-QTOF
Ms type: MS2
Ion mode: POSITIVE
Ionization: ESI
Collision energy: 15.00
Column name: Acquity CSHC18
Retention time: NA
Base peak: 165.0910
Precursor m/z: 165.0910
Precursor type: [M-NH3+H]+
m/z	relative intensity
118.0394	33
119.0461	39
120.0554	48
121.0622	49
122.0686	55
131.0464	62
133.0624	71
134.0707	93
135.0434	110
136.0484	141
149.0582	216
150.0661	434
151.0697	483
165.0906	748
166.094	999
