Mass spectrum: 3-METHYL-2-OXOVALERATE; LC-ESI-QTOF; MS2; CE: 20;  [M-H]-
Name: 3-METHYL-2-OXOVALERATE
Class: NA
Formula: C6H10O3
Exact mass: 130.06299
SMILES: CCC(C)C(=O)C(O)=O
InChI: InChI=1S/C6H10O3/c1-3-4(2)5(7)6(8)9/h4H,3H2,1-2H3,(H,8,9)
Instrument: Agilent 6530Â Q-TOF LC/MS
Instrument type: LC-ESI-QTOF
Ms type: MS2
Ion mode: NEGATIVE
Ionization: ESI
Collision energy: 20
Column name: NA
Retention time: 0.200 min
Base peak: 129.05369
Precursor m/z: 129.05369
Precursor type: [M-H]-
Precursor intensity: 116
m/z	relative intensity
41.7214	184
41.7251	630
41.7288	683
41.7326	368
41.7362	157
41.74	78
41.7474	52
41.7511	262
41.7548	210
41.7585	157
41.7622	157
41.7659	131
41.7696	26
41.8586	26
42.72	26
45.7634	26
50.053	26
64.5991	368
64.6037	972
64.6083	946
64.6129	683
64.6175	657
64.6221	683
64.6267	552
64.6313	289
64.6359	105
64.6406	184
64.6452	157
64.6498	105
64.6544	26
64.6913	52
69.4001	26
72.3156	131
72.3204	578
72.3253	709
72.3302	999
72.3351	736
72.3399	499
72.3448	473
72.3497	236
72.3643	26
72.3692	52
72.3741	52
75.8892	26
77.7893	26
102.1152	78
102.121	630
102.1268	999
102.1326	867
102.1384	578
102.1442	473
102.15	262
102.1558	131
102.1616	78
102.1731	26
102.1789	26
106.6555	26
107.1595	26
123.8888	26
124.0356	52
124.042	473
124.0484	578
124.0548	446
124.0611	394
124.0675	262
124.0739	131
124.0803	184
124.0867	289
124.0931	315
124.0995	105
124.1122	26
124.1186	105
124.125	78
130.3341	26
