Mass spectrum: AMINOADIPATE; LC-ESI-QTOF; MS2; CE: 40;  [M-H]-
Name: AMINOADIPATE
Class: NA
Formula: C6H11NO4
Exact mass: 161.06881
SMILES: NC(CCCC(O)=O)C(O)=O
InChI: InChI=1S/C6H11NO4/c7-4(6(10)11)2-1-3-5(8)9/h4H,1-3,7H2,(H,8,9)(H,10,11)
Instrument: Agilent 6530Â Q-TOF LC/MS
Instrument type: LC-ESI-QTOF
Ms type: MS2
Ion mode: NEGATIVE
Ionization: ESI
Collision energy: 40
Column name: NA
Retention time: 0.200 min
Base peak: 160.06329
Precursor m/z: 160.06329
Precursor type: [M-H]-
Precursor intensity: 130
m/z	relative intensity
41.004	810
60.9963	854
78.0359	977
80.6589	999
