Mass spectrum: Uridine; LC-ESI-ITFT; MS2; CE: 30;  [M-H]-
Name: Uridine
Class: Nucleosides, nucleotides, and analogues; Pyrimidine nucleosides
Formula: C9H12N2O6
Exact mass: 244.06954
SMILES: OC[C@H]1O[C@H]([C@H](O)[C@@H]1O)N1C=CC(=O)NC1=O
InChI: InChI=1S/C9H12N2O6/c12-3-4-6(14)7(15)8(17-4)11-2-1-5(13)10-9(11)16/h1-2,4,6-8,12,14-15H,3H2,(H,10,13,16)/t4-,6-,7-,8-/m1/s1
Instrument: Thermo Scientific Q-Exactive Focus
Instrument type: LC-ESI-ITFT
Ms type: MS2
Ion mode: NEGATIVE
Ionization: ESI
Collision energy: 30
Column name: Acquity CSHC18
Retention time: 0.931 min
Base peak: 243.06226
Precursor m/z: 243.06226
Precursor type: [M-H]-
m/z	relative intensity
55.0177	26
66.0337	421
68.013	99
71.0126	26
82.0286	999
83.0126	34
94.0286	98
110.0236	732
111.0188	35
122.0236	137
