Mass spectrum: Orotic acid; LC-ESI-QTOF; MS2; CE: 15 / 50;  [M-H]-
Name: Orotic acid
Class: NA
Formula: C5H4N2O4
Exact mass: 156.0171
SMILES: C1=C(NC(=O)NC1=O)C(=O)O
InChI: InChI=1S/C5H4N2O4/c8-3-1-2(4(9)10)6-5(11)7-3/h1H,(H,9,10)(H2,6,7,8,11)
Instrument: impact II
Instrument type: LC-ESI-QTOF
Ms type: MS2
Ion mode: NEGATIVE
Ionization: ESI
Collision energy: 15 / 50
Column name: Acquity CSHC18
Retention time: 0.633 min
Base peak: 155.0090
Precursor m/z: 155.0090
Precursor type: [M-H]-
m/z	relative intensity
111.0199	999
111.0329	53
111.0678	6
111.0859	6
111.0955	5
111.1039	9
111.1196	5
111.1526	3
111.1632	4
111.3517	2
112.0232	74
155.0088	6
