Mass spectrum: L-Homoserine; LC-ESI-ITFT; MS2; CE: 60;  [M-H]-
Name: L-Homoserine
Class: Organic acids and derivatives; Carboxylic acids and derivatives; Amino acids, peptides, and analogues
Formula: C4H9NO3
Exact mass: 119.05824
SMILES: N[C@@H](CCO)C(O)=O
InChI: InChI=1S/C4H9NO3/c5-3(1-2-6)4(7)8/h3,6H,1-2,5H2,(H,7,8)/t3-/m0/s1
Instrument: Thermo Scientific Q-Exactive Focus
Instrument type: LC-ESI-ITFT
Ms type: MS2
Ion mode: NEGATIVE
Ionization: ESI
Collision energy: 60
Column name: Acquity CSHC18
Retention time: 1.763 min
Base peak: 118.05097
Precursor m/z: 118.05097
Precursor type: [M-H]-
m/z	relative intensity
51.5936	825
57.0751	999
59.9407	817
73.5153	878
76.6855	845
93.9357	872
95.8629	842
111.0814	929
117.2264	903
129.4298	993
