Mass spectrum: p-coumaric acid; LC-ESI-QTOF; MS2; CE: -10, -35, -60V;  [M-H]-
Name: p-coumaric acid
Class: NA
Formula: C9H8O3
Exact mass: 164.0473
SMILES: C1=CC(=CC=C1C=CC(=O)O)O
InChI: InChI=1S/C9H8O3/c10-8-4-1-7(2-5-8)3-6-9(11)12/h1-6,10H,(H,11,12)
Instrument: TripleToF 5600; Sciex
Instrument type: LC-ESI-QTOF
Ms type: MS2
Ion mode: NEGATIVE
Ionization: ESI
Collision energy: -10, -35, -60V
Column name: Acquity CSHC18
Retention time: 8.769 min
Base peak: 163.0400
Precursor m/z: 163.0400
Precursor type: [M-H]-
Precursor intensity: 8850.69
m/z	relative intensity
99.9322	233
119.0373	368
119.0496	999
