Mass spectrum: Luteolin 3'-methyl ether; LC-ESI-QTOF; MS2; CE: 50eV;  [M+H]+
Name: Luteolin 3'-methyl ether
Class: Flavone
Formula: C16H12O6
Exact mass: 300.0634
SMILES: COC1=C(C=CC(=C1)C2=CC(=O)C3=C(C=C(C=C3O2)O)O)O
InChI: InChI=1S/C16H12O6/c1-21-14-4-8(2-3-10(14)18)13-7-12(20)16-11(19)5-9(17)6-15(16)22-13/h2-7,17-19H,1H3
Instrument: TIMS-TOF Pro, Bruker Daltonik; Elute UHPLC System, Bruker Daltonik
Instrument type: LC-ESI-QTOF
Ms type: MS2
Ion mode: POSITIVE
Ionization: ESI
Collision energy: 50eV
Column name: Acquity CSHC18
Retention time: 7.495 min
Base peak: 301.0700
Precursor m/z: 301.0700
Precursor type: [M+H]+
Precursor intensity: 1053513
m/z	relative intensity
42.2855	1
106.0274	1
124.015	3
152.9922	3
153.0178	28
169.0659	1
183.9464	1
201.0262	1
207.4908	1
229.0136	3
229.0497	27
231.5079	1
256.5222	2
257.0459	14
258.0109	9
258.0517	95
259.0518	7
261.15	1
286.0277	8
287.0509	18
288.0491	2
298.8305	1
300.9792	2
301.0232	15
301.07	999
301.563	6
