Mass spectrum: Isovalerylglycine; ESI-TOF; MS2; CE: 0.6458333;  [M+H]+
Name: Isovalerylglycine
Class: NA
Formula: C7H13NO3
Exact mass: 159.08954
SMILES: CC(C)CC(=O)NCC(O)=O
InChI: InChI=1S/C7H13NO3/c1-5(2)3-6(9)8-4-7(10)11/h5H,3-4H2,1-2H3,(H,8,9)(H,10,11)
Instrument: waters xevo g2 TOF
Instrument type: ESI-TOF
Ms type: MS2
Ion mode: POSITIVE
Ionization: ESI
Collision energy: 0.6458333
Column name: Acquity CSHC18
Retention time: 1.959 min
Base peak: 160.09754
Precursor m/z: 160.09754
Precursor type: [M+H]+
m/z	relative intensity
57.0711	31
72.9388	3
76.0403	80
82.0489	26
85.0657	72
98.0446	56
99.0322	3
110.0478	5
114.0282	4
128.9874	45
152.987	16
154.0544	146
155.012	60
158.0475	3
161.062	1
165.0644	3
167.0241	56
168.0118	24
169.019	999
170.0229	243
171.0101	4
172.065	53
173.0822	1
181.0184	19
182.1347	9
183.0723	6
185.047	4
186.0212	60
187.0294	90
190.0374	5
198.0443	749
199.0493	108
201.0453	39
202.0472	10
204.0609	14
205.0138	5
209.0098	4
210.0325	1
211.0531	27
213.0818	3
214.0018	18
215.0057	1
216.0545	39
217.0559	2
223.0862	3
225.0815	98
226.0826	14
238.0285	1
239.1009	32
240.0807	2
243.0766	9
244.0514	8
245.0368	19
247.0572	45
253.1749	33
254.0612	1
255.1162	111
256.1683	21
261.0838	7
269.1541	70
270.0971	46
271.0716	12
273.0759	143
274.1369	1
280.1195	27
281.1218	8
282.1031	244
283.1085	75
284.1198	26
285.1257	226
286.1279	35
293.068	10
294.0263	10
299.1566	52
300.1138	52
301.1154	6
313.1447	15
327.1243	2
329.108	10
331.1157	24
333.113	5
339.1257	6
341.1563	6
343.1451	64
344.1965	4
350.137	27
351.0959	19
352.0964	1
357.1336	297
358.1371	25
365.1234	8
372.0985	57
373.1036	13
379.1156	7
384.0928	2
386.1374	1
394.0806	15
395.0874	57
396.0891	9
400.1036	1
407.149	2
411.0526	20
412.0596	11
413.0575	4
414.1546	9
416.1093	2
417.0688	26
418.0728	12
423.0307	1
426.035	3
427.076	15
428.0336	15
430.079	6
434.0464	1
441.0524	1
468.0747	1
469.0876	1
471.1775	3
484.0429	2
507.0793	1
524.216	3
525.1443	12
526.1476	3
540.1846	2
542.1256	3
546.1969	5
553.1683	33
554.1707	49
556.158	8
560.1849	8
569.1367	10
570.1416	37
571.1454	4
574.1442	4
575.1509	83
576.1556	20
586.1144	42
588.1207	6
591.1196	6
592.119	4
593.1302	1
601.1585	6
611.1859	1
632.1718	8
633.1824	3
705.2897	3
734.2412	14
735.2421	5
750.2104	7
757.2095	3
827.1411	2
1176.2674	1
