Mass spectrum: MANNITOL; LC-ESI-QTOF; MS2; CE: 10;  [M-H]-
Name: MANNITOL
Class: NA
Formula: C6H14O6
Exact mass: 182.07904
SMILES: OC[C@@H](O)[C@@H](O)[C@H](O)[C@H](O)CO
InChI: InChI=1S/C6H14O6/c7-1-3(9)5(11)6(12)4(10)2-8/h3-12H,1-2H2/t3-,4-,5-,6-/m1/s1
Instrument: Agilent 6530Â Q-TOF LC/MS
Instrument type: LC-ESI-QTOF
Ms type: MS2
Ion mode: NEGATIVE
Ionization: ESI
Collision energy: 10
Column name: NA
Retention time: 0.200 min
Base peak: 181.07305
Precursor m/z: 181.07305
Precursor type: [M-H]-
Precursor intensity: 135
m/z	relative intensity
41.0051	162
43.0252	164
55.024	178
59.0356	197
71.0302	206
73.0353	277
83.0166	299
85.0324	321
89.0391	442
101.0385	551
119.0332	750
163.06	758
181.0962	999
