Mass spectrum: Pseudoephedrine; LC-ESI-QTOF; MS2; CE: 15.00;  [M+H]+
Name: Pseudoephedrine
Class: NA
Formula: C10H15NO
Exact mass: 165.1154
SMILES: CC(C(C1=CC=CC=C1)O)NC
InChI: InChI=1S/C10H15NO/c1-8(11-2)10(12)9-6-4-3-5-7-9/h3-8,10-12H,1-2H3
Instrument: Bruker MicrOTOF-Q
Instrument type: LC-ESI-QTOF
Ms type: MS2
Ion mode: POSITIVE
Ionization: ESI
Collision energy: 15.00
Column name: Acquity CSHC18
Retention time: NA
Base peak: 166.1226
Precursor m/z: 166.1226
Precursor type: [M+H]+
m/z	relative intensity
91.05	12
92.05	2
103.06	2
103.46	1
104.06	4
105.07	3
106.07	2
107.08	4
108.07	2
109.07	1
112.89	1
115.05	140
115.37	1
116.06	31
116.54	2
117.01	1
117.07	264
117.22	1
117.71	2
118.07	25
119.08	2
120.08	4
130.06	3
131.09	1
132.08	51
132.45	2
132.49	1
133.09	390
133.49	1
134.09	31
134.29	1
135.08	1
137.77	1
139.96	1
147.1	2
147.22	1
147.42	2
147.85	2
147.94	1
148.11	999
148.23	2
148.29	3
148.37	2
148.43	2
148.49	1
148.58	1
148.83	1
148.98	1
149.11	104
149.39	1
149.95	1
150.11	3
151.21	2
181.02	1
201.43	2
247.89	2
