Mass spectrum: Laudanine; ESI-QTOF; MS2; CE: -10, -35, -60;  [M-H]-
Name: Laudanine
Class: Benzylisoquinoline alkaloid
Formula: C20H25NO4
Exact mass: 343.1784
SMILES: CN1CCC2=CC(=C(C=C2C1CC3=CC(=C(C=C3)OC)O)OC)OC
InChI: InChI=1S/C20H25NO4/c1-21-8-7-14-11-19(24-3)20(25-4)12-15(14)16(21)9-13-5-6-18(23-2)17(22)10-13/h5-6,10-12,16,22H,7-9H2,1-4H3
Instrument: AB Sciex TripleToF 5500
Instrument type: ESI-QTOF
Ms type: MS2
Ion mode: NEGATIVE
Ionization: ESI
Collision energy: -10, -35, -60
Column name: Acquity CSHC18
Retention time: 5.152 min
Base peak: 342.1754
Precursor m/z: 342.1754
Precursor type: [M-H]-
Precursor intensity: 1971.56
m/z	relative intensity
342.1725	999
