Mass spectrum: 13,14-dihydro-15-keto Prostaglandin F1-alpha; ESI-TOF; MS2; CE: 6.0000000;  [M+H]+
Name: 13,14-dihydro-15-keto Prostaglandin F1-alpha
Class: NA
Formula: C20H36O5
Exact mass: 356.25627
SMILES: O[C@H]1[C@H](CCC(CCCCC)=O)[C@@H](CCCCCCC(O)=O)[C@@H](O)C1
InChI: InChI=1S/C20H36O5/c1-2-3-6-9-15(21)12-13-17-16(18(22)14-19(17)23)10-7-4-5-8-11-20(24)25/h16-19,22-23H,2-14H2,1H3,(H,24,25)/t16-,17-,18+,19-/m1/s1
Instrument: waters xevo g2 TOF
Instrument type: ESI-TOF
Ms type: MS2
Ion mode: POSITIVE
Ionization: ESI
Collision energy: 6.0000000
Column name: Acquity CSHC18
Retention time: 3.796 min
Base peak: 357.26427
Precursor m/z: 357.26427
Precursor type: [M+H]+
m/z	relative intensity
131.0879	2
141.0163	2
147.1178	8
159.1186	7
161.1323	6
171.1175	56
177.1263	8
180.0989	113
180.5988	23
187.1494	50
188.1186	8
189.1266	81
191.1436	10
195.1395	8
196.1081	4
198.1095	260
201.1638	5
205.1593	73
206.1662	4
207.1387	176
208.1417	22
239.1609	10
245.1501	6
249.1813	4
257.2287	23
267.2074	6
275.2356	18
285.2218	275
286.2233	53
287.2303	3
303.2324	943
304.2348	198
305.2394	22
321.2429	999
322.2476	222
323.2511	25
333.1683	3
339.2533	800
340.2569	178
341.259	19
