Mass spectrum: D-Tartaric acid; LC-ESI-ITFT; MS2; CE: 100;  [M-H]-
Name: D-Tartaric acid
Class: Organic oxygen compounds; Organooxygen compounds; Carbohydrates and carbohydrate conjugates
Formula: C4H6O6
Exact mass: 150.01644
SMILES: O[C@@H]([C@H](O)C(O)=O)C(O)=O
InChI: InChI=1S/C4H6O6/c5-1(3(7)8)2(6)4(9)10/h1-2,5-6H,(H,7,8)(H,9,10)/t1-,2-/m0/s1
Instrument: Thermo Scientific Q-Exactive Focus
Instrument type: LC-ESI-ITFT
Ms type: MS2
Ion mode: NEGATIVE
Ionization: ESI
Collision energy: 100
Column name: Acquity CSHC18
Retention time: 2.589 min
Base peak: 149.00916
Precursor m/z: 149.00916
Precursor type: [M-H]-
m/z	relative intensity
61.0249	613
80.576	592
92.5154	999
100.2702	606
113.8351	711
127.6844	688
137.019	650
151.5049	638
156.6361	661
156.7109	609
