Mass spectrum: N-palmitoylglycine; ESI-TOF; MS2; CE: 6.0000000;  [M+H]+
Name: N-palmitoylglycine
Class: NA
Formula: C18H35NO3
Exact mass: 313.26169
SMILES: [H]OC(=O)C([H])([H])N([H])C(=O)C([H])([H])C([H])([H])C([H])([H])C([H])([H])C([H])([H])C([H])([H])C([H])([H])C([H])([H])C([H])([H])C([H])([H])C([H])([H])C([H])([H])C([H])([H])C([H])([H])C([H])([H])[H]
InChI: InChI=1S/C18H35NO3/c1-2-3-4-5-6-7-8-9-10-11-12-13-14-15-17(20)19-16-18(21)22/h2-16H2,1H3,(H,19,20)(H,21,22)
Instrument: waters xevo g2 TOF
Instrument type: ESI-TOF
Ms type: MS2
Ion mode: POSITIVE
Ionization: ESI
Collision energy: 6.0000000
Column name: Acquity CSHC18
Retention time: 7.654 min
Base peak: 314.26969
Precursor m/z: 314.26969
Precursor type: [M+H]+
m/z	relative intensity
76.0402	6
81.0708	10
83.0865	9
85.102	3
95.086	12
97.1018	7
109.1018	15
113.9864	15
123.117	13
137.1335	5
165.1653	3
176.6124	24
185.6186	4
192.6265	3
221.2279	5
239.2373	75
240.2408	11
268.2637	4
296.2586	12
314.27	999
315.2729	219
