Mass spectrum: Myricetin 3-O-galactoside; LC-ESI-QTOF; MS2; CE: 50eV;  [M+H]+
Name: Myricetin 3-O-galactoside
Class: Flavonol
Formula: C21H20O13
Exact mass: 480.0904
SMILES: C1=C(C=C(C(=C1O)O)O)C2=C(C(=O)C3=C(C=C(C=C3O2)O)O)OC4C(C(C(C(O4)CO)O)O)O
InChI: InChI=1S/C21H20O13/c22-5-12-15(28)17(30)18(31)21(33-12)34-20-16(29)13-8(24)3-7(23)4-11(13)32-19(20)6-1-9(25)14(27)10(26)2-6/h1-4,12,15,17-18,21-28,30-31H,5H2
Instrument: TIMS-TOF Pro, Bruker Daltonik; Elute UHPLC System, Bruker Daltonik
Instrument type: LC-ESI-QTOF
Ms type: MS2
Ion mode: POSITIVE
Ionization: ESI
Collision energy: 50eV
Column name: Acquity CSHC18
Retention time: 4.766 min
Base peak: 481.0985
Precursor m/z: 481.0985
Precursor type: [M+H]+
Precursor intensity: 41716.63
m/z	relative intensity
59.0482	1
61.0287	7
73.0282	3
81.0326	2
85.0283	7
86.029	1
89.4635	1
91.0326	3
97.029	5
115.0399	1
127.0387	4
145.048	3
153.0177	8
165.0181	5
179.0325	3
193.0115	1
217.0488	3
235.0143	1
245.0429	5
246.0448	1
254.4148	1
273.0409	8
284.0294	1
291.0513	2
301.0342	2
318.8846	1
318.9526	1
319.0206	14
319.0404	999
319.3324	1
319.5536	3
320.0473	81
321.0529	7
