Mass spectrum: t-3,5-dimethoxy-4-hydroxycinnamic acid; LC-ESI-QFT; MS2; CE: NCE_15_30_49;  [M-H]-
Name: t-3,5-dimethoxy-4-hydroxycinnamic acid
Class: NA
Formula: C11H12O5
Exact mass: 224.0685
SMILES: COC1=CC(=CC(=C1O)OC)C=CC(=O)O
InChI: InChI=1S/C11H12O5/c1-15-8-5-7(3-4-10(12)13)6-9(16-2)11(8)14/h3-6,14H,1-2H3,(H,12,13)
Instrument: Thermo_Qexactive_Plus
Instrument type: LC-ESI-QFT
Ms type: MS2
Ion mode: NEGATIVE
Ionization: ESI
Collision energy: NCE_15_30_49
Column name: Acquity CSHC18
Retention time: 4.455 min
Base peak: 223.0609
Precursor m/z: 223.0609
Precursor type: [M-H]-
Precursor intensity: 82019260
m/z	relative intensity
70.8327	18
71.6546	18
76.7177	19
94.3292	20
94.587	23
104.0149	23
107.7097	23
121.0287	24
135.0438	24
136.0157	25
137.0241	25
149.0231	35
151.0388	41
152.0101	43
153.0132	47
163.0395	62
164.0504	73
165.0383	100
167.035	104
169.0506	116
179.0705	190
180.0415	236
193.0122	298
194.0169	355
208.0374	544
209.0411	568
223.0629	999
