Mass spectrum: (+)-Cloprostenol (sodium salt); ESI-TOF; MS2; CE: 0.6458333;  [M+H]+
Name: (+)-Cloprostenol (sodium salt)
Class: NA
Formula: C22H28ClNaO6
Exact mass: 446.14721
SMILES: O[C@@H]1[C@H](C/C=C\CCCC([O-])=O)[C@@H](/C=C/[C@@H](O)COC2=CC=CC(Cl)=C2)[C@H](O)C1.[Na+]
InChI: InChI=1S/C22H29ClO6.Na/c23-15-6-5-7-17(12-15)29-14-16(24)10-11-19-18(20(25)13-21(19)26)8-3-1-2-4-9-22(27)28;/h1,3,5-7,10-12,16,18-21,24-26H,2,4,8-9,13-14H2,(H,27,28);/q;+1/p-1/b3-1-,11-10+;/t16-,18-,19-,20+,21-;/m1./s1
Instrument: waters xevo g2 TOF
Instrument type: ESI-TOF
Ms type: MS2
Ion mode: POSITIVE
Ionization: ESI
Collision energy: 0.6458333
Column name: Acquity CSHC18
Retention time: 3.583 min
Base peak: 447.15521
Precursor m/z: 447.15521
Precursor type: [M+H]+
m/z	relative intensity
83.0499	75
91.0552	77
105.0708	67
107.0859	9
115.054	18
116.0627	12
117.0708	84
119.0866	49
128.0635	34
129.0709	71
131.0871	59
133.1021	15
141.0414	28
143.0862	60
144.0884	7
145.102	35
153.0683	11
155.0867	74
156.0885	8
157.1028	21
166.0779	18
168.0918	14
169.1038	27
171.1183	20
173.0964	6
181.1005	27
183.1181	48
184.1244	3
185.0958	4
187.1124	9
189.1276	8
197.1323	22
201.13	12
215.1441	13
225.1281	39
243.1386	40
245.1533	4
248.0495	6
261.1477	24
279.1594	52
299.0904	5
328.0702	4
371.1413	10
388.0528	13
399.0434	4
406.0638	9
447.1555	999
448.1586	215
