Mass spectrum: trans-sinapic acid; LC-ESI-ITFT; MS2; CE: 0.3;  [M+H]+
Name: trans-sinapic acid
Class: phenolic acids
Formula: C11H12O5
Exact mass: 224.0685
SMILES: COC1=CC(=CC(=C1O)OC)C=CC(=O)O
InChI: InChI=1S/C11H12O5/c1-15-8-5-7(3-4-10(12)13)6-9(16-2)11(8)14/h3-6,14H,1-2H3,(H,12,13)
Instrument: LTQ-Orbitrap XL hybrid mass spectrometer (Thermo Scientific)
Instrument type: LC-ESI-ITFT
Ms type: MS2
Ion mode: POSITIVE
Ionization: ESI
Collision energy: 0.3
Column name: Acquity CSHC18
Retention time: 7.364 min
Base peak: 225.0767
Precursor m/z: 225.0767
Precursor type: [M+H]+
Precursor intensity: 6233409
m/z	relative intensity
51.6051	5
51.6589	5
51.6805	4
51.7883	2
51.8208	2
51.875	2
51.9292	4
52.038	2
52.725	2
57.373	1
59.6273	1
60.2435	1
60.4687	1
63.2764	1
65.0539	1
71.0117	1
71.8231	1
71.8246	1
71.8269	3
77.0729	1
78.0234	1
96.2764	1
98.2675	1
151.3366	1
175.0399	30
194.5197	1
196.1653	1
196.1712	4
205.349	2
205.7764	5
206.205	4
206.3772	3
206.7671	2
207.0361	4
207.0381	2
207.0473	5
207.0494	5
207.0541	7
207.0562	6
207.0588	4
207.0664	999
207.0741	7
207.0811	4
207.0832	6
207.76	1
207.9338	2
208.3694	2
225.077	13
