Mass spectrum: 8β-hydroxy-9α-angeloxy-14-oxo-acanthospermolide; LC-ESI-ITFT; MS2; CE: 50eV;  [M+H]+
Name: 8β-hydroxy-9α-angeloxy-14-oxo-acanthospermolide
Class: Sesquiterpenelactone; Melampolide
Formula: C20H24O6
Exact mass: 360.1573
SMILES: C\C=C(\C)C(=O)O[C@@H]1[C@H](O)C(=CCCC(C)=C[C@H]2OC(=O)C(=C)[C@H]12)C=O
InChI: InChI=1S/C20H24O6/c1-5-12(3)19(23)26-18-16-13(4)20(24)25-15(16)9-11(2)7-6-8-14(10-21)17(18)22/h5,8-10,15-18,22H,4,6-7H2,1-3H3/b11-9?,12-5-,14-8?/t15-,16+,17-,18+/m1/s1
Instrument: Q Exactive Plus, ThermoFisher Scientific
Instrument type: LC-ESI-ITFT
Ms type: MS2
Ion mode: POSITIVE
Ionization: ESI
Collision energy: 50eV
Column name: Acquity CSHC18
Retention time: 7.913 min
Base peak: 361.1642
Precursor m/z: 361.1642
Precursor type: [M+H]+
Precursor intensity: 285230400
m/z	relative intensity
55.0551	111
56.0735	9
64.5051	10
69.7414	42
77.6707	9
81.0699	13
83.0496	999
105.0701	13
107.0486	9
129.0694	13
131.0857	47
133.0651	40
135.0809	101
143.0852	9
147.0808	58
151.0752	41
159.0797	54
159.1159	10
166.6877	10
169.1013	145
171.1175	31
173.0574	15
177.0911	407
181.1004	20
187.1104	100
197.0962	255
199.1113	62
213.0905	13
215.1052	469
225.0899	114
228.0293	9
233.1196	26
243.1012	400
261.1123	64
304.3872	9
361.1613	50
