Mass spectrum: Acetovanillone; LC-ESI-QTOF; MS2; CE: 15.00;  [M+H]+
Name: Acetovanillone
Class: NA
Formula: C9H10O3
Exact mass: 166.0630
SMILES: CC(=O)C1=CC(=C(C=C1)O)OC
InChI: InChI=1S/C9H10O3/c1-6(10)7-3-4-8(11)9(5-7)12-2/h3-5,11H,1-2H3
Instrument: Bruker MicrOTOF-Q
Instrument type: LC-ESI-QTOF
Ms type: MS2
Ion mode: POSITIVE
Ionization: ESI
Collision energy: 15.00
Column name: Acquity CSHC18
Retention time: NA
Base peak: 167.0703
Precursor m/z: 167.0703
Precursor type: [M+H]+
m/z	relative intensity
82.2098	8
93.027	35
98.9873	11
107.0399	57
108.015	19
108.0535	8
109.0245	31
110.0329	999
111.0348	69
112.0327	19
117.0272	7
123.0383	37
124.0493	11
125.0565	579
126.0614	35
126.7579	9
142.3692	11
151.034	157
152.0474	21
167.0685	400
168.0205	9
168.0729	42
171.018	7
171.4256	12
214.7866	8
