Mass spectrum: Naringenin; LC-ESI-QTOF; MS2; CE: 20-40eV;  [M+H]+
Name: Naringenin
Class: flavonoid
Formula: C15H12O5
Exact mass: 272.0685
SMILES: C=1C=C(C=CC1C2CC(C3=C(C=C(C=C3O2)O)O)=O)O
InChI: InChI=1S/C15H12O5/c16-9-3-1-8(2-4-9)13-7-12(19)15-11(18)5-10(17)6-14(15)20-13/h1-6,13,16-18H,7H2
Instrument: Impact II, Bruker; Dionex 3000, Thermo Scientific
Instrument type: LC-ESI-QTOF
Ms type: MS2
Ion mode: POSITIVE
Ionization: ESI
Collision energy: 20-40eV
Column name: Acquity CSHC18
Retention time: 4.644 min
Base peak: 273.0756
Precursor m/z: 273.0756
Precursor type: [M+H]+
Precursor intensity: 45096.88
m/z	relative intensity
95.0476	28
97.0263	24
107.0492	18
115.0523	20
119.0479	105
120.0517	15
123.0432	31
147.0436	387
148.0465	18
153.0172	999
154.02	66
189.0518	20
271.0581	44
273.0752	752
