Mass spectrum: L-Carnitine; ESI-TOF; MS2; CE: 6.0000000;  [M+H]+
Name: L-Carnitine
Class: NA
Formula: C7H15NO3
Exact mass: 161.10519
SMILES: C[N+](C)(C)CC(O)CC([O-])=O
InChI: InChI=1S/C7H15NO3/c1-8(2,3)5-6(9)4-7(10)11/h6,9H,4-5H2,1-3H3
Instrument: waters xevo g2 TOF
Instrument type: ESI-TOF
Ms type: MS2
Ion mode: POSITIVE
Ionization: ESI
Collision energy: 6.0000000
Column name: Acquity CSHC18
Retention time: 0.499 min
Base peak: 162.11319
Precursor m/z: 162.11319
Precursor type: [M+H]+
m/z	relative intensity
102.092	3
103.0396	7
141.9591	40
162.113	999
163.1162	347
163.9769	2
164.118	29
184.9865	15
204.1237	3
323.2182	14
324.2199	2
484.3258	1
537.2313	3
