Mass spectrum: Glucose 6-phosphate; LC-ESI-ITFT; MS2; CE: 10;  [M-H]-
Name: Glucose 6-phosphate
Class: Organic oxygen compounds; Organooxygen compounds; Carbohydrates and carbohydrate conjugates
Formula: C6H13O9P
Exact mass: 260.02972
SMILES: OC1O[C@H](COP(O)(O)=O)[C@@H](O)[C@H](O)[C@H]1O
InChI: InChI=1S/C6H13O9P/c7-3-2(1-14-16(11,12)13)15-6(10)5(9)4(3)8/h2-10H,1H2,(H2,11,12,13)/t2-,3-,4+,5-,6?/m1/s1
Instrument: Thermo Scientific Q-Exactive Focus
Instrument type: LC-ESI-ITFT
Ms type: MS2
Ion mode: NEGATIVE
Ionization: ESI
Collision energy: 10
Column name: Acquity CSHC18
Retention time: 0.365 min
Base peak: 259.02243
Precursor m/z: 259.02243
Precursor type: [M-H]-
m/z	relative intensity
78.9578	128
96.9684	999
101.0232	10
138.9791	72
146.9376	2
168.9898	79
199.0006	119
223.0009	18
241.0115	4
259.0224	252
