Mass spectrum: Sucrose; ESI-TOF; MS2; CE: 0.6458333;  [M+H]+
Name: Sucrose
Class: NA
Formula: C12H22O11
Exact mass: 342.11621
SMILES: OCC1OC(OC2(CO)OC(CO)C(O)C2O)C(O)C(O)C1O
InChI: InChI=1S/C12H22O11/c13-1-4-6(16)8(18)9(19)11(21-4)23-12(3-15)10(20)7(17)5(2-14)22-12/h4-11,13-20H,1-3H2
Instrument: waters xevo g2 TOF
Instrument type: ESI-TOF
Ms type: MS2
Ion mode: POSITIVE
Ionization: ESI
Collision energy: 0.6458333
Column name: Acquity CSHC18
Retention time: 0.567 min
Base peak: 343.12421
Precursor m/z: 343.12421
Precursor type: [M+H]+
m/z	relative intensity
85.029	460
97.0285	208
99.0444	56
109.0282	4
110.9751	51
127.0392	481
128.0423	21
137.9878	4
145.0499	297
163.0598	4
169.9671	109
172.9768	4
173.9605	125
180.0864	4
186.9691	131
198.9687	76
198.9693	59
203.0522	304
233.9848	68
275.9931	999
276.9984	144
289.0926	4
294.0028	178
306.0044	117
307.0114	67
325.1127	4
326.1187	4
343.1251	32
360.1505	4
362.0976	4
365.1064	619
366.1102	84
381.0783	4
396.0344	110
397.0419	84
414.0482	4
558.0888	4
576.0999	4
577.1034	4
707.2167	4
707.2199	4
738.1528	4
739.1624	4
