Mass spectrum: Methyl benzoate; LC-ESI-ITFT; MS2; CE: 100;  [M+H]+
Name: Methyl benzoate
Class: Benzenoids; Benzene and substituted derivatives; Benzoic acids and derivatives
Formula: C8H8O2
Exact mass: 136.05243
SMILES: COC(=O)C1=CC=CC=C1
InChI: InChI=1S/C8H8O2/c1-10-8(9)7-5-3-2-4-6-7/h2-6H,1H3
Instrument: Thermo Scientific Q-Exactive Focus
Instrument type: LC-ESI-ITFT
Ms type: MS2
Ion mode: POSITIVE
Ionization: ESI
Collision energy: 100
Column name: Acquity CSHC18
Retention time: 2.571 min
Base peak: 137.05971
Precursor m/z: 137.05971
Precursor type: [M+H]+
m/z	relative intensity
50.0157	999
51.0236	298
51.9406	404
53.0028	867
53.9397	36
53.9981	40
55.935	167
65.0028	48
67.9354	53
74.0156	59
