Mass spectrum: PGE1; ESI-TOF; MS2; CE: 0.6458333;  [M+H]+
Name: PGE1
Class: NA
Formula: C20H34O5
Exact mass: 354.24062
SMILES: [H]OC(=O)C([H])([H])C([H])([H])C([H])([H])C([H])([H])C([H])([H])C([H])([H])C1([H])(C(=O)C([H])([H])C([H])(O[H])C1([H])(C([H])=C([H])C([H])(O[H])C([H])([H])C([H])([H])C([H])([H])C([H])([H])C([H])([H])[H]))
InChI: InChI=1S/C20H34O5/c1-2-3-6-9-15(21)12-13-17-16(18(22)14-19(17)23)10-7-4-5-8-11-20(24)25/h12-13,15-17,19,21,23H,2-11,14H2,1H3,(H,24,25)
Instrument: waters xevo g2 TOF
Instrument type: ESI-TOF
Ms type: MS2
Ion mode: POSITIVE
Ionization: ESI
Collision energy: 0.6458333
Column name: Acquity CSHC18
Retention time: 4.395 min
Base peak: 355.24862
Precursor m/z: 355.24862
Precursor type: [M+H]+
m/z	relative intensity
99.08	86
115.0533	93
142.0703	89
145.1011	890
153.0221	96
159.1171	655
160.1214	86
165.1265	119
167.0862	164
174.1357	87
181.1008	210
186.1356	104
189.1278	342
191.1427	417
199.1475	340
201.127	187
203.1436	685
205.1217	34
213.127	130
223.0648	270
225.0802	86
239.1792	54
245.1902	63
247.2089	42
249.0813	169
255.2117	345
256.2123	51
261.2186	118
267.1059	194
273.2219	671
274.2259	129
275.2015	146
276.0452	67
277.0633	208
283.2062	546
284.2089	98
289.2172	408
290.2208	72
291.232	233
292.2362	47
301.1824	999
302.2197	440
305.1786	682
319.2275	837
320.2319	123
333.2429	78
337.2371	121
343.2451	73
356.2107	373
356.7128	134
357.1754	842
