Mass spectrum: (3S,5S,8R,9S,10S,13S,14S,16R,17R)-10,13-dimethyl-17-((S)-1-((2S,5S)-5-methylpiperidin-2-yl)ethyl)hexadecahydro-1H-cyclopenta[a]phenanthrene-3,16-diol; APCI-ITFT; MS2; CE: CID 35;  [M-H]-
Name: (3S,5S,8R,9S,10S,13S,14S,16R,17R)-10,13-dimethyl-17-((S)-1-((2S,5S)-5-methylpiperidin-2-yl)ethyl)hexadecahydro-1H-cyclopenta[a]phenanthrene-3,16-diol
Class: NA
Formula: C27H47NO2
Exact mass: 417.36068
SMILES: C[C@@]12[C@](CC[C@]3([H])[C@@]([H])2CC[C@@]4(C)[C@@]3([H])C[C@@H](O)[C@]4([H])[C@H](C)[C@@H]5CC[C@H](C)CN5)([H])C[C@@H](O)CC1
InChI: InChI=1S/C27H47NO2/c1-16-5-8-23(28-15-16)17(2)25-24(30)14-22-20-7-6-18-13-19(29)9-11-26(18,3)21(20)10-12-27(22,25)4/h16-25,28-30H,5-15H2,1-4H3/t16-,17+,18-,19-,20+,21-,22-,23-,24+,25-,26-,27-/m0/s1
Instrument: Orbitrap Elite
Instrument type: APCI-ITFT
Ms type: MS2
Ion mode: NEGATIVE
Ionization: APCI
Collision energy: CID 35
Column name: Acquity CSHC18
Retention time: 0.138 min
Base peak: 416.35340
Precursor m/z: 416.35340
Precursor type: [M-H]-
Precursor intensity: 7501269
m/z	relative intensity
150.0918	1
164.1087	2
166.1239	2
245.1912	1
255.1755	1
257.189	1
271.1712	13
273.1845	16
274.1874	1
275.2	1
277.2186	1
289.2532	12
299.239	28
300.2436	2
301.2196	2
301.2553	9
302.2559	2
313.2172	1
315.2331	12
317.2487	27
318.2496	1
319.2644	33
320.2674	3
358.3134	2
379.303	1
380.2981	2
381.3164	3
382.3115	4
384.3275	86
385.3325	3
386.3404	86
387.3494	5
388.3553	1
392.2937	1
394.3095	14
396.3264	999
397.3273	169
398.3463	319
399.3472	132
400.3105	2
410.3066	3
412.3192	6
414.3404	1
416.3525	76
