Mass spectrum: Glucobrassicin; LC-ESI-QTOF; MS2; CE: 20.18;  [M-O3S+H]+
Name: Glucobrassicin
Class: NA
Formula: C16H20N2O9S2
Exact mass: 448.0610
SMILES: C1=CC=C2C(=C1)C(=CN2)CC(=NOS(=O)(=O)O)SC3C(C(C(C(O3)CO)O)O)O
InChI: InChI=1S/C16H20N2O9S2/c19-7-11-13(20)14(21)15(22)16(26-11)28-12(18-27-29(23,24)25)5-8-6-17-10-4-2-1-3-9(8)10/h1-4,6,11,13-17,19-22H,5,7H2,(H,23,24,25)
Instrument: Bruker MicrOTOF-Q
Instrument type: LC-ESI-QTOF
Ms type: MS2
Ion mode: POSITIVE
Ionization: ESI
Collision energy: 20.18
Column name: Acquity CSHC18
Retention time: NA
Base peak: 369.1115
Precursor m/z: 369.1115
Precursor type: [M-O3S+H]+
m/z	relative intensity
130.0645	811
131.0691	92
149.0294	60
155.06	38
156.0665	87
157.0734	18
162.0371	345
163.0394	27
173.0295	226
174.0368	625
175.0395	76
176.0352	26
189.0482	137
190.054	339
191.0564	46
207.0582	999
208.061	131
209.0569	52
