Mass spectrum: Kaempferol; ESI-TOF; MS2; CE: 6.0000000;  [M+H]+
Name: Kaempferol
Class: NA
Formula: C15H10O6
Exact mass: 286.04774
SMILES: OC1=CC=C(C=C1)C1=C(O)C(=O)C2=C(O1)C=C(O)C=C2O
InChI: InChI=1S/C15H10O6/c16-8-3-1-7(2-4-8)15-14(20)13(19)12-10(18)5-9(17)6-11(12)21-15/h1-6,16-18,20H
Instrument: waters xevo g2 TOF
Instrument type: ESI-TOF
Ms type: MS2
Ion mode: POSITIVE
Ionization: ESI
Collision energy: 6.0000000
Column name: Acquity CSHC18
Retention time: 3.005 min
Base peak: 287.05574
Precursor m/z: 287.05574
Precursor type: [M+H]+
m/z	relative intensity
121.0289	101
127.9795	17
141.003	3
165.0187	9
167.0598	4
191.5158	2
204.0316	4
223.0276	21
254.0533	1
257.0712	999
258.0562	165
259.0566	45
260.0605	4
271.0605	2
272.0636	4
273.1114	2
285.0397	107
286.0441	25
287.6427	674
