Mass spectrum: SUBERATE; LC-ESI-QTOF; MS2; CE: 40;  [M-H]-
Name: SUBERATE
Class: NA
Formula: C8H14O4
Exact mass: 174.08921
SMILES: OC(=O)CCCCCCC(O)=O
InChI: InChI=1S/C8H14O4/c9-7(10)5-3-1-2-4-6-8(11)12/h1-6H2,(H,9,10)(H,11,12)
Instrument: Agilent 6530Â Q-TOF LC/MS
Instrument type: LC-ESI-QTOF
Ms type: MS2
Ion mode: NEGATIVE
Ionization: ESI
Collision energy: 40
Column name: NA
Retention time: 0.200 min
Base peak: 173.07920
Precursor m/z: 173.07920
Precursor type: [M-H]-
Precursor intensity: 130
m/z	relative intensity
41.007	399
57.0393	413
58.974	438
67.0544	449
76.9684	569
81.0432	625
83.0376	767
109.0659	944
118.9109	999
