Mass spectrum: 16:0 Lyso PG; ESI-TOF; MS2; CE: 0.6458333;  [M+H]+
Name: 16:0 Lyso PG
Class: NA
Formula: C22H44NaO9P
Exact mass: 506.26206
SMILES: [H]OC([H])([H])C([H])(O[H])C([H])([H])OP(=O)([O-])OC([H])([H])C([H])(O[H])C([H])([H])OC(=O)C([H])([H])C([H])([H])C([H])([H])C([H])([H])C([H])([H])C([H])([H])C([H])([H])C([H])([H])C([H])([H])C([H])([H])C([H])([H])C([H])([H])C([H])([H])C([H])([H])C([H])([H])[H].[Na+]
InChI: InChI=1S/C22H45O9P.Na/c1-2-3-4-5-6-7-8-9-10-11-12-13-14-15-22(26)29-17-21(25)19-31-32(27,28)30-18-20(24)16-23;/h20-21,23-25H,2-19H2,1H3,(H,27,28);/q;+1/p-1
Instrument: waters xevo g2 TOF
Instrument type: ESI-TOF
Ms type: MS2
Ion mode: POSITIVE
Ionization: ESI
Collision energy: 0.6458333
Column name: Acquity CSHC18
Retention time: 10.248 min
Base peak: 507.27006
Precursor m/z: 507.27006
Precursor type: [M+H]+
m/z	relative intensity
71.0868	50
81.0709	35
85.1021	57
97.1019	22
98.9852	50
109.1018	72
118.9211	20
136.9661	93
155.0111	175
195.004	137
211.0029	27
228.9795	69
239.2374	26
257.2489	28
281.0952	24
313.2746	999
314.2781	204
315.28	23
353.267	70
415.2238	20
431.1869	113
432.1902	34
449.2671	205
467.2083	64
468.281	15
477.2106	40
477.7113	24
485.2874	10
489.259	21
507.2696	268
