Mass spectrum: Zeatin riboside; LC-ESI-QTOF; MS2; CE: -10, -35, -60V;  [M-H]-
Name: Zeatin riboside
Class: NA
Formula: C15H21N5O5
Exact mass: 351.1543
SMILES: CC(=CCNC1=C2C(=NC=N1)N(C=N2)C3C(C(C(O3)CO)O)O)CO
InChI: InChI=1S/C15H21N5O5/c1-8(4-21)2-3-16-13-10-14(18-6-17-13)20(7-19-10)15-12(24)11(23)9(5-22)25-15/h2,6-7,9,11-12,15,21-24H,3-5H2,1H3,(H,16,17,18)
Instrument: TripleToF 5600; Sciex
Instrument type: LC-ESI-QTOF
Ms type: MS2
Ion mode: NEGATIVE
Ionization: ESI
Collision energy: -10, -35, -60V
Column name: Acquity CSHC18
Retention time: 6.703 min
Base peak: 350.1486
Precursor m/z: 350.1486
Precursor type: [M-H]-
Precursor intensity: 67845.81
m/z	relative intensity
107.033	143
134.0442	661
134.0475	999
218.1064	479
266.0856	411
350.1458	379
