Mass spectrum: TYROSINE; LC-ESI-QTOF; MS2; CE: 40;  [M-H]-
Name: TYROSINE
Class: NA
Formula: C9H11NO3
Exact mass: 181.07389
SMILES: N[C@@H](CC1=CC=C(O)C=C1)C(O)=O
InChI: InChI=1S/C9H11NO3/c10-8(9(12)13)5-6-1-3-7(11)4-2-6/h1-4,8,11H,5,10H2,(H,12,13)/t8-/m0/s1
Instrument: Agilent 6530Â Q-TOF LC/MS
Instrument type: LC-ESI-QTOF
Ms type: MS2
Ion mode: NEGATIVE
Ionization: ESI
Collision energy: 40
Column name: NA
Retention time: 0.200 min
Base peak: 180.06768
Precursor m/z: 180.06768
Precursor type: [M-H]-
Precursor intensity: 129
m/z	relative intensity
72.0122	559
79.9548	775
93.0385	999
