Mass spectrum: 2,3-dihydroxybenzoic acid; LC-ESI-QTOF; MS2; CE: 35;  [M-H]-
Name: 2,3-dihydroxybenzoic acid
Class: NA
Formula: C7H6O4
Exact mass: 154.0266
SMILES: C1=CC(=C(C(=C1)O)O)C(=O)O
InChI: InChI=1S/C7H6O4/c8-5-3-1-2-4(6(5)9)7(10)11/h1-3,8-9H,(H,10,11)
Instrument: Bruker MicrOTOF-Q
Instrument type: LC-ESI-QTOF
Ms type: MS2
Ion mode: NEGATIVE
Ionization: ESI
Collision energy: 35
Column name: Acquity CSHC18
Retention time: NA
Base peak: 153.0194
Precursor m/z: 153.0194
Precursor type: [M-H]-
m/z	relative intensity
108.0208	999
