Mass spectrum: INOSINE; LC-ESI-QTOF; MS2; CE: 40;  [M-H]-
Name: INOSINE
Class: NA
Formula: C10H12N4O5
Exact mass: 268.08077
SMILES: OC[C@H]1O[C@H]([C@H](O)[C@@H]1O)N1C=NC2=C1N=CNC2=O
InChI: InChI=1S/C10H12N4O5/c15-1-4-6(16)7(17)10(19-4)14-3-13-5-8(14)11-2-12-9(5)18/h2-4,6-7,10,15-17H,1H2,(H,11,12,18)/t4-,6-,7-,10-/m1/s1
Instrument: Agilent 6530Â Q-TOF LC/MS
Instrument type: LC-ESI-QTOF
Ms type: MS2
Ion mode: NEGATIVE
Ionization: ESI
Collision energy: 40
Column name: NA
Retention time: 0.200 min
Base peak: 267.07500
Precursor m/z: 267.07500
Precursor type: [M-H]-
Precursor intensity: 141
m/z	relative intensity
65.0188	231
66.0028	247
80.0356	475
92.039	842
108.0343	883
135.0516	999
