Mass spectrum: THYMINE; LC-ESI-QFT; MS2; CE: 30eV;  [M+H]+
Name: THYMINE
Class: NA
Formula: C5H6N2O2
Exact mass: 126.04293
SMILES: CC1=CNC(=O)NC1=O
InChI: InChI=1S/C5H6N2O2/c1-3-2-6-5(9)7-4(3)8/h2H,1H3,(H2,6,7,8,9)
Instrument: Q-Exactive Orbitrap, Thermo Scientfic; Ultimate 3000 HPLC, Thermo Scientfic
Instrument type: LC-ESI-QFT
Ms type: MS2
Ion mode: POSITIVE
Ionization: ESI
Collision energy: 30eV
Column name: Acquity CSHC18
Retention time: 1.120 min
Base peak: 127.0502
Precursor m/z: 127.0502
Precursor type: [M+H]+
Precursor intensity: 199
m/z	relative intensity
52.0151	3
52.7256	5
54.0346	41
56.0502	54
56.0513	3
58.1683	3
62.7442	4
68.8575	4
72.068	3
72.7719	4
75.0268	31
77.9958	3
78.2161	4
79.7139	4
81.0456	7
81.0706	8
82.0294	62
84.045	313
85.4955	4
93.0372	22
96.8528	4
102.7082	4
109.0369	7
109.0401	286
110.0241	999
111.0275	7
128.0476	6
128.0485	7
128.0537	114
134.2937	4
145.1135	4
149.4833	3
