Mass spectrum: Norvaline; LC-ESI-QTOF; MS2; CE: 10;  [M+H]+
Name: Norvaline
Class: NA
Formula: C5H11NO2
Exact mass: 117.07898
SMILES: CCCC(C(=O)O)N
InChI: InChI=1S/C5H11NO2/c1-2-3-4(6)5(7)8/h4H,2-3,6H2,1H3,(H,7,8)
Instrument: impact II
Instrument type: LC-ESI-QTOF
Ms type: MS2
Ion mode: POSITIVE
Ionization: ESI
Collision energy: 10
Column name: Acquity CSHC18
Retention time: 1.789 min
Base peak: 118.08610
Precursor m/z: 118.08610
Precursor type: [M+H]+
m/z	relative intensity
72.0814	999
118.0862	190
