Mass spectrum: Lyso PE 16:0; LC-ESI-QTOF; MS2; CE: 20-40eV;  [M-H]-
Name: Lyso PE 16:0
Class: Lipid
Formula: C21H44NO7P
Exact mass: 453.2855
SMILES: CCCCCCCCCCCCCCCC(=O)OCC(COP(O)(=O)OCCN)(O)[H]
InChI: InChI=1S/C21H44NO7P/c1-2-3-4-5-6-7-8-9-10-11-12-13-14-15-21(24)27-18-20(23)19-29-30(25,26)28-17-16-22/h20,23H,2-19,22H2,1H3,(H,25,26)
Instrument: Impact II, Bruker; Dionex 3000, Thermo Scientific
Instrument type: LC-ESI-QTOF
Ms type: MS2
Ion mode: POSITIVE
Ionization: ESI
Collision energy: 20-40eV
Column name: Acquity CSHC18
Retention time: 19.587 min
Base peak: 452.2784
Precursor m/z: 452.2784
Precursor type: [M-H]-
Precursor intensity: 7310.25
m/z	relative intensity
112.9874	140
122.0016	87
129.9747	109
152.9952	112
196.0379	392
246.9464	87
255.2325	999
256.2381	179
452.278	405
