Mass spectrum: 5-AMINOLEVULINATE; LC-ESI-QFT; MS2; CE: 30eV;  [M+H]+
Name: 5-AMINOLEVULINATE
Class: NA
Formula: C5H9NO3
Exact mass: 131.05824
SMILES: NCC(=O)CCC(O)=O
InChI: InChI=1S/C5H9NO3/c6-3-4(7)1-2-5(8)9/h1-3,6H2,(H,8,9)
Instrument: Q-Exactive Orbitrap, Thermo Scientfic; Ultimate 3000 HPLC, Thermo Scientfic
Instrument type: LC-ESI-QFT
Ms type: MS2
Ion mode: POSITIVE
Ionization: ESI
Collision energy: 30eV
Column name: Acquity CSHC18
Retention time: 0.588 min
Base peak: 132.0655
Precursor m/z: 132.0655
Precursor type: [M+H]+
Precursor intensity: 107
m/z	relative intensity
53.0395	219
55.0187	741
56.0503	26
59.1907	8
60.0452	81
68.0503	483
68.2415	11
69.0344	86
70.0659	44
71.05	19
71.9301	13
72.0452	349
72.938	110
73.0292	290
74.0609	23
76.6783	9
78.4555	9
84.0452	28
86.1705	11
86.299	9
87.0641	250
88.8078	13
89.9406	61
90.9039	809
90.9485	53
91.9041	17
96.0451	407
97.0291	130
97.0483	14
99.649	10
107.4134	9
107.951	14
108.9144	66
108.9515	20
111.9144	11
113.9642	85
115.0395	241
115.0526	17
115.0588	322
125.9615	17
131.1264	26
131.9302	155
131.9748	24
132.0659	999
133.0693	27
140.9016	10
143.4395	11
148.9777	13
149.9409	146
149.9809	11
