Mass spectrum: SACCHARATE; LC-ESI-QTOF; MS2; CE: 20;  [M-H]-
Name: SACCHARATE
Class: NA
Formula: C6H10O8
Exact mass: 210.03757
SMILES: O[C@@H]([C@H](O)[C@@H](O)C(O)=O)[C@H](O)C(O)=O
InChI: InChI=1S/C6H10O8/c7-1(3(9)5(11)12)2(8)4(10)6(13)14/h1-4,7-10H,(H,11,12)(H,13,14)/t1-,2-,3-,4+/m0/s1
Instrument: Agilent 6530Â Q-TOF LC/MS
Instrument type: LC-ESI-QTOF
Ms type: MS2
Ion mode: NEGATIVE
Ionization: ESI
Collision energy: 20
Column name: NA
Retention time: 0.200 min
Base peak: 209.03231
Precursor m/z: 209.03231
Precursor type: [M-H]-
Precursor intensity: 195
m/z	relative intensity
41.008	129
43.0263	140
44.9968	154
55.0251	165
57.0314	215
59.0257	241
68.9945	241
71.0265	332
73.0046	339
75.0099	430
85.0442	492
87.0067	534
89.0241	909
111.0039	983
133.0184	999
