Mass spectrum: biochanin A 7-O-glucoside; LC-ESI-ITFT; MS2; CE: 0.3;  [M-H]-
Name: biochanin A 7-O-glucoside
Class: isoflavones
Formula: C22H22O10
Exact mass: 446.1213
SMILES: COC1=CC=C(C=C1)C2=COC3=CC(=CC(=C3C2=O)O)OC4C(C(C(C(O4)CO)O)O)O
InChI: InChI=1S/C22H22O10/c1-29-11-4-2-10(3-5-11)13-9-30-15-7-12(6-14(24)17(15)18(13)25)31-22-21(28)20(27)19(26)16(8-23)32-22/h2-7,9,16,19-24,26-28H,8H2,1H3
Instrument: LTQ-Orbitrap XL hybrid mass spectrometer (Thermo Scientific)
Instrument type: LC-ESI-ITFT
Ms type: MS2
Ion mode: NEGATIVE
Ionization: ESI
Collision energy: 0.3
Column name: Acquity CSHC18
Retention time: 8.051 min
Base peak: 445.1137
Precursor m/z: 445.1137
Precursor type: [M-H]-
Precursor intensity: 1550718
m/z	relative intensity
131.4712	190
164.0075	160
167.0043	289
190.3896	207
210.5214	176
233.7269	195
283.0609	999
287.0952	188
288.5701	188
294.1639	175
304.5628	236
324.1491	218
331.46	175
