Mass spectrum: 16-hydroxyhörhammericine; ESI-QTOF; MS2; CE: 30 eV;  [M+H]+
Name: 16-hydroxyhörhammericine
Class: NA
Formula: C21H24N2O5
Exact mass: 384.1685
SMILES: CC(C12CC(=C3C4(CCN(CC5(C1(O5)[H])[H])C42[H])C=6C=CC(=CC6N3)O)C(=O)OC)(O)[H]
InChI: InChI=1S/C21H24N2O5/c1-10(24)21-8-12(18(26)27-2)16-20(13-4-3-11(25)7-14(13)22-16)5-6-23(19(20)21)9-15-17(21)28-15/h3-4,7,10,15,17,19,22,24-25H,5-6,8-9H2,1-2H3
Instrument: Synapt (HDMS 1st gen)
Instrument type: ESI-QTOF
Ms type: MS2
Ion mode: POSITIVE
Ionization: ESI
Collision energy: 30 eV
Column name: Acquity CSHC18
Retention time: 4.040 min
Base peak: 385.1772
Precursor m/z: 385.1772
Precursor type: [M+H]+
Precursor intensity: 712.07
m/z	relative intensity
190.0886	220
385.178	999
