Mass spectrum: CYSTINE; LC-ESI-QTOF; MS2; CE: 20;  [M+H]+
Name: CYSTINE
Class: NA
Formula: C6H12N2O4S2
Exact mass: 240.0238
SMILES: N[C@@H](CSSC[C@H](N)C(O)=O)C(O)=O
InChI: InChI=1S/C6H12N2O4S2/c7-3(5(9)10)1-13-14-2-4(8)6(11)12/h3-4H,1-2,7-8H2,(H,9,10)(H,11,12)/t3-,4-/m0/s1
Instrument: Agilent 6530Â Q-TOF LC/MS
Instrument type: LC-ESI-QTOF
Ms type: MS2
Ion mode: POSITIVE
Ionization: ESI
Collision energy: 20
Column name: NA
Retention time: 0.200 min
Base peak: 241.03114
Precursor m/z: 241.03114
Precursor type: [M+H]+
Precursor intensity: 180.5
m/z	relative intensity
46.5451	11
56.0387	50
71.7781	36
73.2308	5
74.0116	999
74.1985	30
74.9376	22
84.951	64
85.227	153
88.5205	11
89.0528	83
92.3033	25
93.2929	33
96.9934	192
100.1383	30
118.3228	30
120.0111	410
120.6789	47
122.0209	273
122.39	19
124.7943	25
130.4108	22
132.3714	13
140.0534	19
151.9874	281
159.8544	66
190.6272	44
193.1628	385
193.2546	27
199.9361	276
200.0394	19
207.53	55
211.5445	30
214.5113	13
217.7703	33
225.5408	58
225.8056	41
231.5117	64
234.5455	30
237.174	16
244.9245	30
