Mass spectrum: 4'-O-Methylkaempferol; LC-ESI-QTOF; MS2; CE: 50eV;  [M+H]+
Name: 4'-O-Methylkaempferol
Class: Flavonol
Formula: C16H12O6
Exact mass: 300.0634
SMILES: COC1=CC=C(C=C1)C2=C(C(=O)C3=C(C=C(C=C3O2)O)O)O
InChI: InChI=1S/C16H12O6/c1-21-10-4-2-8(3-5-10)16-15(20)14(19)13-11(18)6-9(17)7-12(13)22-16/h2-7,17-18,20H,1H3
Instrument: TIMS-TOF Pro, Bruker Daltonik; Elute UHPLC System, Bruker Daltonik
Instrument type: LC-ESI-QTOF
Ms type: MS2
Ion mode: POSITIVE
Ionization: ESI
Collision energy: 50eV
Column name: Acquity CSHC18
Retention time: 9.086 min
Base peak: 301.0685
Precursor m/z: 301.0685
Precursor type: [M+H]+
Precursor intensity: 965323.4
m/z	relative intensity
55.0137	2
66.3936	4
69.0294	5
77.0286	3
81.0312	4
92.1227	4
105.0314	3
106.0404	8
108.0512	5
121.0466	4
124.0147	4
127.0526	3
133.0576	2
137.0234	2
140.9494	4
152.01	10
153.0171	64
154.0119	4
156.0545	2
165.0175	15
173.0559	4
183.0435	7
185.0517	2
187.0362	6
192.9937	2
199.0758	2
201.053	14
212.0473	4
213.0558	8
216.7703	2
227.0724	2
229.0491	53
230.0539	25
231.0609	6
232.0484	3
238.9999	1
245.0769	4
250.155	2
257.0424	10
258.0507	24
269.0432	12
273.1025	2
284.555	1
286.0477	20
287.0495	4
300.8125	4
301.0052	6
301.0657	999
301.3466	2
