Mass spectrum: Indole; LC-ESI-ITFT; MS2; CE: 60;  [M+H]+
Name: Indole
Class: Organoheterocyclic compounds; Indoles and derivatives; Indoles
Formula: C8H7N
Exact mass: 117.05785
SMILES: N1C=CC2=C1C=CC=C2
InChI: InChI=1S/C8H7N/c1-2-4-8-7(3-1)5-6-9-8/h1-6,9H
Instrument: Thermo Scientific Q-Exactive Focus
Instrument type: LC-ESI-ITFT
Ms type: MS2
Ion mode: POSITIVE
Ionization: ESI
Collision energy: 60
Column name: Acquity CSHC18
Retention time: NA
Base peak: 118.06513
Precursor m/z: 118.06513
Precursor type: [M+H]+
m/z	relative intensity
50.0157	380
51.0235	340
53.0027	534
58.0656	296
62.0156	431
63.0234	999
65.039	967
74.0155	53
89.0389	682
91.0545	98
