Mass spectrum: PGF1?; ESI-TOF; MS2; CE: 6.0000000;  [M+H]+
Name: PGF1?
Class: NA
Formula: C20H36O5
Exact mass: 356.25627
SMILES: [H]OC(=O)C([H])([H])C([H])([H])C([H])([H])C([H])([H])C([H])([H])C([H])([H])C1([H])(C([H])(O[H])C([H])([H])C([H])(O[H])C1([H])(C([H])=C([H])C([H])(O[H])C([H])([H])C([H])([H])C([H])([H])C([H])([H])C([H])([H])[H]))
InChI: InChI=1S/C20H36O5/c1-2-3-6-9-15(21)12-13-17-16(18(22)14-19(17)23)10-7-4-5-8-11-20(24)25/h12-13,15-19,21-23H,2-11,14H2,1H3,(H,24,25)
Instrument: waters xevo g2 TOF
Instrument type: ESI-TOF
Ms type: MS2
Ion mode: POSITIVE
Ionization: ESI
Collision energy: 6.0000000
Column name: Acquity CSHC18
Retention time: 4.280 min
Base peak: 357.26427
Precursor m/z: 357.26427
Precursor type: [M+H]+
m/z	relative intensity
93.0703	3
105.0697	2
107.0861	4
109.1013	6
121.1008	2
131.0859	4
135.1169	2
145.102	1
147.1168	3
149.1326	3
161.1328	5
163.1306	7
167.0905	12
173.1334	4
176.0967	7
177.1474	5
180.0992	8
183.1105	5
187.148	44
189.1037	13
201.1645	9
205.1599	58
206.161	6
221.1552	9
233.1547	7
235.1687	9
241.1971	10
257.2266	7
259.2076	24
267.2105	20
275.2362	8
277.217	122
278.2184	22
279.23	9
285.222	89
286.2259	19
293.248	15
295.2278	6
301.2167	10
303.2327	999
304.2361	230
305.2459	83
306.2499	15
319.2272	20
320.1444	16
321.2426	414
322.2465	96
323.2526	14
337.238	26
339.2536	78
340.2567	15
348.1405	11
349.1447	15
355.248	14
