Mass spectrum: GLYCOCHOLATE; LC-ESI-QTOF; MS2; CE: 40;  [M+H]+
Name: GLYCOCHOLATE
Class: NA
Formula: C26H43NO6
Exact mass: 465.30904
SMILES: C[C@H](CCC(O)=NCC(O)=O)[C@H]1CC[C@H]2[C@@H]3[C@H](O)C[C@@H]4C[C@H](O)CC[C@]4(C)[C@H]3C[C@H](O)[C@]12C
InChI: InChI=1S/C26H43NO6/c1-14(4-7-22(31)27-13-23(32)33)17-5-6-18-24-19(12-21(30)26(17,18)3)25(2)9-8-16(28)10-15(25)11-20(24)29/h14-21,24,28-30H,4-13H2,1-3H3,(H,27,31)(H,32,33)/t14-,15+,16-,17-,18+,19+,20-,21+,24+,25+,26-/m1/s1
Instrument: Agilent 6530Â Q-TOF LC/MS
Instrument type: LC-ESI-QTOF
Ms type: MS2
Ion mode: POSITIVE
Ionization: ESI
Collision energy: 40
Column name: NA
Retention time: 0.200 min
Base peak: 466.31267
Precursor m/z: 466.31267
Precursor type: [M+H]+
Precursor intensity: 105.5
m/z	relative intensity
55.061	203
69.0499	206
76.0553	208
77.0431	212
79.0608	212
81.0813	212
83.0718	222
91.0651	224
93.0806	227
95.0957	231
105.0746	232
109.1103	237
112.0725	243
119.102	245
120.0923	247
121.0737	249
123.1004	258
129.0655	262
131.0885	268
133.1008	274
135.1066	274
143.087	275
145.1027	280
147.1116	281
153.0654	283
155.0821	285
157.1121	294
158.0978	300
159.1227	304
161.1279	305
169.1104	307
170.1031	331
171.1249	352
172.1122	380
173.1325	381
175.1176	388
181.1025	392
183.1133	406
185.143	421
187.1487	432
189.1375	436
194.1117	437
197.1377	439
199.1545	444
201.1572	452
209.1564	461
211.1545	525
213.1621	533
215.1792	570
227.166	598
229.1615	606
237.173	647
239.1763	666
263.171	739
277.1967	794
412.2728	999
