Mass spectrum: Norepinephrine; LC-ESI-ITFT; MS2; CE: 20;  [M-H]-
Name: Norepinephrine
Class: Benzenoids; Phenols; Benzenediols
Formula: C8H11NO3
Exact mass: 169.07389
SMILES: NC[C@H](O)C1=CC(O)=C(O)C=C1
InChI: InChI=1S/C8H11NO3/c9-4-8(12)5-1-2-6(10)7(11)3-5/h1-3,8,10-12H,4,9H2/t8-/m0/s1
Instrument: Thermo Scientific Q-Exactive Focus
Instrument type: LC-ESI-ITFT
Ms type: MS2
Ion mode: NEGATIVE
Ionization: ESI
Collision energy: 20
Column name: Acquity CSHC18
Retention time: 0.642 min
Base peak: 168.06662
Precursor m/z: 168.06662
Precursor type: [M-H]-
m/z	relative intensity
81.0333	18
93.0334	20
95.0126	8
95.049	54
108.0205	14
122.0362	77
123.044	999
134.0236	23
149.0472	15
150.055	184
