Mass spectrum: 2,3-Diaminopropionic acid; ESI-TOF; MS2; CE: 0.6458333;  [M+H]+
Name: 2,3-Diaminopropionic acid
Class: NA
Formula: C3H8N2O2
Exact mass: 104.05858
SMILES: NCC(N)C(O)=O
InChI: InChI=1S/C3H8N2O2/c4-1-2(5)3(6)7/h2H,1,4-5H2,(H,6,7)
Instrument: waters xevo g2 TOF
Instrument type: ESI-TOF
Ms type: MS2
Ion mode: POSITIVE
Ionization: ESI
Collision energy: 0.6458333
Column name: Acquity CSHC18
Retention time: 0.472 min
Base peak: 105.06658
Precursor m/z: 105.06658
Precursor type: [M+H]+
m/z	relative intensity
72.9386	559
88.0402	6
90.9039	252
98.963	999
99.9703	6
102.0923	116
105.067	6
111.9712	306
112.9566	78
114.9714	255
115.9792	343
124.0884	6
129.0536	6
131.9623	264
133.9292	6
141.9592	368
142.9641	35
145.0184	357
147.0366	6
151.924	333
155.0149	185
158.9856	195
160.9969	38
163.977	6
170.0932	6
170.8659	48
173.0028	35
173.869	201
174.9546	6
175.965	6
183.988	6
186.0436	6
189.0192	115
191.9424	6
195.9134	6
201.0341	62
202.019	6
204.058	43
204.9913	219
206.9934	6
217.9306	34
229.0151	50
230.8909	6
233.0479	159
233.9272	107
241.8847	6
242.9406	40
247.0726	53
258.1069	31
258.8882	68
261.0476	6
262.0362	6
263.0434	6
264.0437	6
265.0454	6
267.0412	6
316.9584	34
366.0951	6
388.0825	6
420.0151	6
421.0232	372
466.0186	6
524.0738	6
547.0533	6
