Mass spectrum: shikimic acid; LC-ESI-QTOF; MS2; CE: -10, -35, -60V;  [M-H]-
Name: shikimic acid
Class: NA
Formula: C7H10O5
Exact mass: 174.0528
SMILES: C1C(C(C(C=C1C(=O)O)O)O)O
InChI: InChI=1S/C7H10O5/c8-4-1-3(7(11)12)2-5(9)6(4)10/h1,4-6,8-10H,2H2,(H,11,12)
Instrument: TripleToF 5600; Sciex
Instrument type: LC-ESI-QTOF
Ms type: MS2
Ion mode: NEGATIVE
Ionization: ESI
Collision energy: -10, -35, -60V
Column name: Acquity CSHC18
Retention time: 2.693 min
Base peak: 173.0468
Precursor m/z: 173.0468
Precursor type: [M-H]-
Precursor intensity: 237015.8
m/z	relative intensity
65.0397	29
67.0231	7
71.0138	42
73.0264	94
73.0276	94
83.0504	42
89.0245	5
93.034	356
99.0079	31
109.0391	20
111.0457	114
127.0448	23
129.0207	18
137.0241	127
143.0343	43
155.0354	178
171.0317	67
172.0949	6
172.5118	7
173.0463	999
