Mass spectrum: Allantoin; LC-ESI-ITFT; MS2; CE: 30;  [M+H]+
Name: Allantoin
Class: Organoheterocyclic compounds; Azoles; Imidazoles
Formula: C4H6N4O3
Exact mass: 158.04399
SMILES: NC(=O)NC1NC(=O)NC1=O
InChI: InChI=1S/C4H6N4O3/c5-3(10)6-1-2(9)8-4(11)7-1/h1H,(H3,5,6,10)(H2,7,8,9,11)
Instrument: Thermo Scientific Q-Exactive Focus
Instrument type: LC-ESI-ITFT
Ms type: MS2
Ion mode: POSITIVE
Ionization: ESI
Collision energy: 30
Column name: Acquity CSHC18
Retention time: 0.913 min
Base peak: 159.05127
Precursor m/z: 159.05127
Precursor type: [M+H]+
m/z	relative intensity
55.0296	64
61.0401	999
67.6615	31
71.0244	36
71.6942	31
72.0448	37
73.04	305
88.2487	33
99.0192	155
171.5763	40
