Mass spectrum: Amentoflavone; LC-ESI-QFT; MS2; CE: 15,30,45 (NCE);  [2M+H]+
Name: Amentoflavone
Class: NA
Formula: C30H18O10
Exact mass: 538.0900
SMILES: OC1=CC=C(C=C1)C1=CC(=O)C2=C(O)C=C(O)C(=C2O1)C1=C(O)C=CC(=C1)C1=CC(=O)C2=C(O)C=C(O)C=C2O1
InChI: InChI=1S/C30H18O10/c31-15-4-1-13(2-5-15)24-12-23(38)29-21(36)10-20(35)27(30(29)40-24)17-7-14(3-6-18(17)33)25-11-22(37)28-19(34)8-16(32)9-26(28)39-25/h1-12,31-36H
Instrument: QE Focus, Thermo Scientfic; UPLC I-Class, Waters
Instrument type: LC-ESI-QFT
Ms type: MS2
Ion mode: POSITIVE
Ionization: ESI
Collision energy: 15,30,45 (NCE)
Column name: Acquity CSHC18
Retention time: 2.755 min
Base peak: 1077.1880
Precursor m/z: 1077.1880
Precursor type: [2M+H]+
Precursor intensity: 3290450
m/z	relative intensity
83.8495	1
85.6743	1
114.1527	1
121.0287	11
146.8886	1
153.0179	9
163.0384	1
189.9025	1
269.0454	2
270.0526	6
283.0591	7
307.0602	3
311.0545	7
319.0598	2
335.0544	21
345.0775	6
347.0548	12
359.0543	3
375.0499	3
376.0574	2
377.0648	61
379.0446	1
387.0855	19
403.0444	111
418.0669	2
419.0742	2
421.0549	10
497.0855	17
539.0966	999
816.1153	2
1034.0931	1
