Mass spectrum: Phloretin; LC-ESI-QTOF; MS2; CE: 15;  [M-H]-
Name: Phloretin
Class: NA
Formula: C15H14O5
Exact mass: 274.0841
SMILES: C1=CC(=CC=C1CCC(=O)C2=C(C=C(C=C2O)O)O)O
InChI: InChI=1S/C15H14O5/c16-10-4-1-9(2-5-10)3-6-12(18)15-13(19)7-11(17)8-14(15)20/h1-2,4-5,7-8,16-17,19-20H,3,6H2
Instrument: Bruker MicrOTOF-Q
Instrument type: LC-ESI-QTOF
Ms type: MS2
Ion mode: NEGATIVE
Ionization: ESI
Collision energy: 15
Column name: Acquity CSHC18
Retention time: NA
Base peak: 273.0768
Precursor m/z: 273.0768
Precursor type: [M-H]-
m/z	relative intensity
46.2351	12
48.7498	13
50.9159	12
52.2591	14
54.6164	11
55.3098	11
55.9967	14
60.8864	15
62.1233	11
63.5986	11
64.5624	13
68.0544	13
68.5464	14
69.3325	11
69.8233	11
70.9214	12
72.0898	12
72.9848	16
73.6678	13
74.3228	12
75.0476	12
76.451	12
77.3186	12
81.0033	13
81.8001	12
82.9851	12
83.6002	12
86.1474	13
87.6971	13
89.3327	12
93.0306	25
93.833	14
94.9063	14
95.7123	13
98.5092	13
100.1515	12
101.2143	11
101.6333	14
102.5107	12
102.9778	11
103.691	11
104.7799	11
106.9461	12
107.8869	17
109.4379	11
112.4926	12
113.3507	13
117.4446	12
119.034	155
120.4436	37
121.6978	11
123.1047	283
124.855	259
126.029	34
128.934	11
131.5097	12
133.0342	12
134.9214	43
137.0162	13
139.3296	12
140.8929	12
145.0617	19
147.0431	23
149.023	69
150.7742	68
151.915	17
152.7252	13
154.5781	14
155.9703	14
159.0288	11
161.0697	14
163.0776	30
165.4757	11
166.8912	445
168.0367	470
169.0617	17
171.0471	15
178.7748	139
180.0332	31
187.0765	188
188.08	31
189.0547	459
190.0595	43
201.0555	14
211.077	74
227.0676	14
229.0863	301
230.0911	80
255.0686	81
256.0627	16
272.0257	12
273.0761	999
274.0792	143
