Mass spectrum: GUANIDINOSUCCINATE; LC-ESI-QTOF; MS2; CE: 10;  [M+H]+
Name: GUANIDINOSUCCINATE
Class: NA
Formula: C5H9N3O4
Exact mass: 175.05931
SMILES: NC(=N)N[C@@H](CC(O)=O)C(O)=O
InChI: InChI=1S/C5H9N3O4/c6-5(7)8-2(4(11)12)1-3(9)10/h2H,1H2,(H,9,10)(H,11,12)(H4,6,7,8)/t2-/m0/s1
Instrument: Agilent 6530Â Q-TOF LC/MS
Instrument type: LC-ESI-QTOF
Ms type: MS2
Ion mode: POSITIVE
Ionization: ESI
Collision energy: 10
Column name: NA
Retention time: 0.200 min
Base peak: 176.06716
Precursor m/z: 176.06716
Precursor type: [M+H]+
Precursor intensity: 159.5
m/z	relative intensity
43.0308	50
44.0538	57
46.0287	58
60.0668	76
69.0071	92
70.044	92
74.0373	110
84.0548	113
86.0639	124
88.0606	169
98.0383	183
99.0168	184
112.0605	223
116.051	225
130.0703	234
131.0559	247
134.0548	265
141.0209	267
158.0655	661
176.1014	999
