Mass spectrum: Cortisol; LC-ESI-ITFT; MS2; CE: 30;  [M+H]+
Name: Cortisol
Class: Lipids and lipid-like molecules; Steroids and steroid derivatives; Hydroxysteroids
Formula: C21H30O5
Exact mass: 362.20932
SMILES: [H][C@@]12CC[C@](O)(C(=O)CO)[C@@]1(C)C[C@H](O)[C@@]1([H])[C@@]2([H])CCC2=CC(=O)CC[C@]12C
InChI: InChI=1S/C21H30O5/c1-19-7-5-13(23)9-12(19)3-4-14-15-6-8-21(26,17(25)11-22)20(15,2)10-16(24)18(14)19/h9,14-16,18,22,24,26H,3-8,10-11H2,1-2H3/t14-,15-,16-,18+,19-,20-,21-/m0/s1
Instrument: Thermo Scientific Q-Exactive Focus
Instrument type: LC-ESI-ITFT
Ms type: MS2
Ion mode: POSITIVE
Ionization: ESI
Collision energy: 30
Column name: Acquity CSHC18
Retention time: 0.913 min
Base peak: 363.21661
Precursor m/z: 363.21661
Precursor type: [M+H]+
m/z	relative intensity
97.0652	286
109.0651	189
121.0651	999
123.0807	195
135.0806	130
143.0856	162
145.1013	208
147.1169	183
157.1013	142
159.117	136
