Mass spectrum: Ribose-5-phosphate; LC-ESI-QTOF; MS2; CE: 15.00;  [M+2Na-H]+
Name: Ribose-5-phosphate
Class: NA
Formula: C5H11O8P
Exact mass: 230.0192
SMILES: C(C(C(C(C=O)O)O)O)OP(=O)(O)O
InChI: InChI=1S/C5H11O8P/c6-1-3(7)5(9)4(8)2-13-14(10,11)12/h1,3-5,7-9H,2H2,(H2,10,11,12)
Instrument: Bruker MicrOTOF-Q
Instrument type: LC-ESI-QTOF
Ms type: MS2
Ion mode: POSITIVE
Ionization: ESI
Collision energy: 15.00
Column name: Acquity CSHC18
Retention time: NA
Base peak: 274.9903
Precursor m/z: 274.9903
Precursor type: [M+2Na-H]+
m/z	relative intensity
67.1527	4
103.5505	3
120.9631	3
121.488	2
124.936	130
131.5523	4
141.4262	4
142.9476	669
143.1068	2
143.3028	3
155.0135	2
160.9649	4
166.9404	3
173.0672	4
174.9819	3
184.9591	499
185.9614	21
191.0103	2
192.9929	27
193.9878	3
196.9592	921
197.1258	3
197.2154	3
197.9673	30
198.2281	4
201.6985	18
206.9422	15
210.9759	2
214.97	761
215.3938	3
215.5509	3
215.9689	27
220.9603	5
226.9694	5
233.0485	4
234.6991	4
238.9728	64
244.9829	6
256.7145	3
256.8182	6
256.9801	999
257.3978	6
257.478	3
257.5471	3
257.6908	3
257.9837	52
273.5086	3
274.9907	538
275.077	21
275.1961	3
275.2981	3
275.9954	25
335.1229	3
360.4714	4
423.775	4
704.2129	5
