Mass spectrum: L-Homoserine; LC-ESI-ITFT; MS2; CE: 20;  [M+H]+
Name: L-Homoserine
Class: Organic acids and derivatives; Carboxylic acids and derivatives; Amino acids, peptides, and analogues
Formula: C4H9NO3
Exact mass: 119.05824
SMILES: N[C@@H](CCO)C(O)=O
InChI: InChI=1S/C4H9NO3/c5-3(1-2-6)4(7)8/h3,6H,1-2,5H2,(H,7,8)/t3-/m0/s1
Instrument: Thermo Scientific Q-Exactive Focus
Instrument type: LC-ESI-ITFT
Ms type: MS2
Ion mode: POSITIVE
Ionization: ESI
Collision energy: 20
Column name: Acquity CSHC18
Retention time: 0.630 min
Base peak: 120.06552
Precursor m/z: 120.06552
Precursor type: [M+H]+
m/z	relative intensity
56.05	999
74.024	53
74.0605	424
76.8964	5
84.0447	6
92.5242	7
99.3532	5
102.8242	4
121.4607	5
129.148	4
