Mass spectrum: (20S)-3beta, 16alpha-Diacetoxy-20-(5-methyl-pyridyl-2)-5alpha-pregnan; APCI-ITFT; MS2; CE: CID 35;  [M-H]-
Name: (20S)-3beta, 16alpha-Diacetoxy-20-(5-methyl-pyridyl-2)-5alpha-pregnan
Class: NA
Formula: C31H45NO4
Exact mass: 495.33486
SMILES: C[C@@]12[C@](CC[C@]3([H])[C@@]([H])2CC[C@@]4(C)[C@@]3([H])C[C@@H](OC(C)=O)[C@]4([H])[C@H](C)C5=NC=C(C)C=C5)([H])C[C@@H](OC(C)=O)CC1
InChI: InChI=1S/C31H45NO4/c1-18-7-10-27(32-17-18)19(2)29-28(36-21(4)34)16-26-24-9-8-22-15-23(35-20(3)33)11-13-30(22,5)25(24)12-14-31(26,29)6/h7,10,17,19,22-26,28-29H,8-9,11-16H2,1-6H3/t19-,22+,23+,24-,25+,26+,28-,29+,30+,31+/m1/s1
Instrument: Orbitrap Elite
Instrument type: APCI-ITFT
Ms type: MS2
Ion mode: NEGATIVE
Ionization: APCI
Collision energy: CID 35
Column name: Acquity CSHC18
Retention time: 0.154 min
Base peak: 494.32730
Precursor m/z: 494.32730
Precursor type: [M-H]-
Precursor intensity: 391826.3
m/z	relative intensity
253.2233	9
339.3332	15
419.2894	13
425.3631	31
431.4388	9
433.4382	27
434.2352	11
449.3261	17
449.4291	30
450.3011	19
450.432	16
475.4705	18
477.436	10
493.3712	38
493.4991	999
494.0091	14
494.5052	390
