Mass spectrum: Cytidine; LC-ESI-QTOF; MS2; CE: 15;  [M-H]-
Name: Cytidine
Class: NA
Formula: C9H13N3O5
Exact mass: 243.0855
SMILES: C1=CN(C(=O)N=C1N)C2C(C(C(O2)CO)O)O
InChI: InChI=1S/C9H13N3O5/c10-5-1-2-12(9(16)11-5)8-7(15)6(14)4(3-13)17-8/h1-2,4,6-8,13-15H,3H2,(H2,10,11,16)
Instrument: Bruker MicrOTOF-Q
Instrument type: LC-ESI-QTOF
Ms type: MS2
Ion mode: NEGATIVE
Ionization: ESI
Collision energy: 15
Column name: Acquity CSHC18
Retention time: NA
Base peak: 242.0782
Precursor m/z: 242.0782
Precursor type: [M-H]-
m/z	relative intensity
69.6488	127
73.8787	155
78.315	111
85.0728	133
87.3512	155
89.5326	205
91.0314	116
102.7605	210
108.0334	155
109.0468	999
110.0589	172
152.0398	194
185.8414	133
193.5824	116
198.8864	205
231.8193	133
273.4295	133
295.0625	127
305.5222	144
310.7471	183
361.5359	111
518.9918	122
577.5525	133
645.5695	122
661.8936	116
734.2946	127
811.6514	166
871.6746	133
884.5686	133
932.6423	111
