Mass spectrum: Xanthohumol; LC-ESI-QTOF; MS2; CE: 18.99;  [M-H]-
Name: Xanthohumol
Class: NA
Formula: C21H22O5
Exact mass: 354.1467
SMILES: CC(=CCC1=C(C(=C(C=C1O)OC)C(=O)C=CC2=CC=C(C=C2)O)O)C
InChI: InChI=1S/C21H22O5/c1-13(2)4-10-16-18(24)12-19(26-3)20(21(16)25)17(23)11-7-14-5-8-15(22)9-6-14/h4-9,11-12,22,24-25H,10H2,1-3H3
Instrument: Bruker MicrOTOF-Q
Instrument type: LC-ESI-QTOF
Ms type: MS2
Ion mode: NEGATIVE
Ionization: ESI
Collision energy: 18.99
Column name: Acquity CSHC18
Retention time: NA
Base peak: 353.1394
Precursor m/z: 353.1394
Precursor type: [M-H]-
m/z	relative intensity
45.1571	8
47.7705	7
48.265	11
51.3103	7
51.7723	8
54.3548	7
55.4289	7
57.9136	7
58.3825	7
60.4183	8
61.6934	9
62.3192	7
63.2651	7
64.3099	7
70.5413	7
75.5212	8
77.8778	7
79.2355	9
84.3876	7
86.9705	7
88.3022	7
89.8867	8
91.0014	9
93.0315	15
95.1424	9
96.009	8
96.4368	8
97.0349	9
98.0011	12
102.2579	8
103.402	11
104.9814	7
105.4851	9
106.0422	16
107.8173	10
109.0255	11
110.0023	15
111.0054	12
112.2167	8
112.7994	8
114.4528	8
117.0349	50
119.334	424
121.2801	21
121.997	10
122.7541	9
125.3094	9
127.5243	8
131.0465	9
132.9813	210
134.126	30
135.016	16
136.4817	7
137.0082	19
137.9961	49
139.0016	12
143.0428	8
144.0592	31
145.0573	153
146.0306	48
146.6103	8
147.215	12
148.0189	25
148.9454	15
149.8482	92
151.0019	47
151.5791	7
152.0113	12
155.8636	7
157.0636	102
158.0386	7
158.992	78
160.0474	21
161.0581	40
162.2206	15
163.0027	411
164.0088	82
164.4553	10
165.19	310
166.0947	90
167.0938	15
170.2169	7
171.0494	12
172.0532	10
173.2168	95
174.2131	79
174.9909	165
176.0466	52
177.0187	82
178.0285	25
179.0239	8
180.2292	9
184.0954	7
185.0603	34
186.0626	8
186.9334	28
188.2175	17
189.8751	175
191.606	8
192.1189	46
193.0441	12
197.0571	15
199.0743	70
200.207	17
201.0523	242
202.6207	103
203.9681	106
204.7912	80
206.0834	42
207.1012	426
207.5178	8
208.1054	68
209.2477	12
211.2144	12
212.0593	18
213.0532	20
214.0548	17
215.0708	24
216.0421	12
218.3973	257
221.0833	12
222.0666	11
223.0755	13
224.0333	13
225.0544	59
226.0628	19
227.0381	13
228.0352	13
229.0784	11
230.0617	12
231.1522	115
233.5687	792
236.0359	20
236.9687	14
238.0595	10
239.0721	51
240.0774	51
241.0522	120
242.0578	146
243.0644	14
245.0787	76
246.0886	44
247.0867	408
248.0993	266
249.1136	57
250.0901	11
251.0839	436
252.0874	70
253.0546	50
254.0734	9
255.0574	52
256.0532	21
257.0873	9
258.0461	9
259.0988	36
261.0957	8
262.1009	8
263.1059	8
264.0645	180
265.0642	35
266.0911	26
267.0644	230
268.1073	97
269.0449	201
269.9552	319
271.0564	83
272.054	11
277.1215	262
278.0923	41
279.0999	77
280.1032	13
281.041	21
282.1194	29
282.9374	542
283.4976	9
284.0631	286
285.0682	33
291.0953	8
292.1054	18
293.1175	64
293.5221	7
294.1185	33
295.419	601
296.6477	7
297.0698	116
298.0874	13
303.1091	7
307.6642	7
309.1455	374
310.016	198
310.9822	376
312.1305	136
313.13	14
319.0918	7
320.0994	14
321.112	131
322.113	24
323.0906	593
324.0929	90
325.1392	116
326.1365	15
335.1274	57
336.1304	14
337.1082	203
338.1133	320
339.1177	78
351.2306	7
351.9568	10
353.5362	999
354.6513	8
355.1438	174
