Mass spectrum: 4-Aminohippuric acid; LC-ESI-ITFT; MS2; CE: 100;  [M-H]-
Name: 4-Aminohippuric acid
Class: Benzenoids; Benzene and substituted derivatives; Benzoic acids and derivatives
Formula: C9H10N2O3
Exact mass: 194.06914
SMILES: NC1=CC=C(C=C1)C(=O)NCC(O)=O
InChI: InChI=1S/C9H10N2O3/c10-7-3-1-6(2-4-7)9(14)11-5-8(12)13/h1-4H,5,10H2,(H,11,14)(H,12,13)
Instrument: Thermo Scientific Q-Exactive Focus
Instrument type: LC-ESI-ITFT
Ms type: MS2
Ion mode: NEGATIVE
Ionization: ESI
Collision energy: 100
Column name: Acquity CSHC18
Retention time: 2.322 min
Base peak: 193.06187
Precursor m/z: 193.06187
Precursor type: [M-H]-
m/z	relative intensity
80.1117	999
81.3071	903
97.0373	901
98.4936	903
126.4953	903
133.8823	972
144.0142	902
148.3217	924
148.6102	950
213.529	929
