Mass spectrum: Acetylglycine; ESI-TOF; MS2; CE: 6.0000000;  [M+H]+
Name: Acetylglycine
Class: NA
Formula: C4H7NO3
Exact mass: 117.04259
SMILES: CC(=O)NCC(O)=O
InChI: InChI=1S/C4H7NO3/c1-3(6)5-2-4(7)8/h2H2,1H3,(H,5,6)(H,7,8)
Instrument: waters xevo g2 TOF
Instrument type: ESI-TOF
Ms type: MS2
Ion mode: POSITIVE
Ionization: ESI
Collision energy: 6.0000000
Column name: Acquity CSHC18
Retention time: 0.630 min
Base peak: 118.05059
Precursor m/z: 118.05059
Precursor type: [M+H]+
m/z	relative intensity
76.0403	172
98.9768	9
100.0401	21
102.1284	22
110.0092	1
114.971	19
118.0504	183
124.059	50
130.0688	1
132.0268	99
137.0722	6
140.0326	345
141.0119	5
143.976	109
145.9905	16
150.0067	1
155.9975	46
169.0445	26
170.0136	33
172.9779	103
174.0074	17
179.9422	1
185.0611	6
186.0094	144
197.0243	19
200.0261	93
201.0033	96
202.0338	28
202.9894	6
216.0197	170
217.0233	18
231.0293	6
240.0197	19
241.0204	2
244.0146	140
245.0202	52
247.0228	186
249.0187	36
257.0627	25
258.0626	5
259.0517	244
262.0606	14
273.0396	999
274.0427	54
286.0081	46
287.0162	17
288.0049	825
289.0115	384
290.0126	36
291.0133	52
293.0094	28
301.0354	5
310.9952	4
315.9586	1
330.061	19
387.9306	2
400.9325	1
405.0447	12
414.9764	24
427.0278	14
440.9028	1
444.0026	13
449.0114	27
456.97	1
458.9707	10
459.9746	24
463.0615	1
546.0509	3
566.0556	28
575.0012	15
578.006	2
