Mass spectrum: Indole-3-acetyl-L-aspartic acid; LC-ESI-QTOF; MS2; CE: 50eV;  [M-H]-
Name: Indole-3-acetyl-L-aspartic acid
Class: indole
Formula: C14H14N2O5
Exact mass: 290.0903
SMILES: C1=CC=C2C(=C1)C(=CN2)CC(=O)NC(CC(=O)O)C(=O)O
InChI: InChI=1S/C14H14N2O5/c17-12(16-11(14(20)21)6-13(18)19)5-8-7-15-10-4-2-1-3-9(8)10/h1-4,7,11,15H,5-6H2,(H,16,17)(H,18,19)(H,20,21)
Instrument: TIMS-TOF Pro, Bruker Daltonik; Elute UHPLC System, Bruker Daltonik
Instrument type: LC-ESI-QTOF
Ms type: MS2
Ion mode: NEGATIVE
Ionization: ESI
Collision energy: 50eV
Column name: Acquity CSHC18
Retention time: 5.231 min
Base peak: 289.0777
Precursor m/z: 289.0777
Precursor type: [M-H]-
Precursor intensity: 469437.9
m/z	relative intensity
26.1837	11
27.6504	8
33.6928	10
42.0098	321
45.4036	16
48.2397	12
52.5435	10
55.2919	9
58.0046	10
59.0116	27
68.3047	9
70.0264	9
71.0136	128
86.2211	11
88.0413	999
88.1453	8
88.2386	11
88.4283	10
89.0387	23
91.2814	12
94.3559	9
96.99	9
99.3254	10
110.0221	9
114.018	44
115.0032	141
116.0269	18
119.0294	10
128.0472	102
129.0498	13
130.0632	56
131.0686	10
132.028	841
133.0317	31
146.0605	21
154.0516	10
156.0399	148
166.4281	14
167.0593	10
173.0721	267
174.061	62
175.0549	16
199.0828	21
201.1012	12
227.0902	17
228.0845	11
245.0888	161
246.0949	15
247.0935	9
271.0718	16
272.0657	12
289.0777	352
