Mass spectrum: Cysteic acid; LC-ESI-ITFT; MS2; CE: 100;  [M-H]-
Name: Cysteic acid
Class: Organic acids and derivatives; Carboxylic acids and derivatives; Amino acids, peptides, and analogues
Formula: C3H7NO5S
Exact mass: 169.00449
SMILES: NC(CS(O)(=O)=O)C(O)=O
InChI: InChI=1S/C3H7NO5S/c4-2(3(5)6)1-10(7,8)9/h2H,1,4H2,(H,5,6)(H,7,8,9)
Instrument: Thermo Scientific Q-Exactive Focus
Instrument type: LC-ESI-ITFT
Ms type: MS2
Ion mode: NEGATIVE
Ionization: ESI
Collision energy: 100
Column name: Acquity CSHC18
Retention time: 2.581 min
Base peak: 167.99722
Precursor m/z: 167.99722
Precursor type: [M-H]-
m/z	relative intensity
60.3245	136
62.1955	136
63.9612	999
66.5403	135
79.956	433
83.3961	139
117.9064	139
121.5019	141
123.7246	143
135.4519	154
