Mass spectrum: Biliverdin hydrochloride; ESI-TOF; MS2; CE: 6.0000000;  [M+H]+
Name: Biliverdin hydrochloride
Class: NA
Formula: C33H34N4O6
Exact mass: 582.24783
SMILES: CC1=C(C=C)\C(NC1=O)=C\C1=C(C)C(CCC(O)=O)=C(N1)\C=C1/N\C(=C\C2=NC(=O)C(C=C)=C2C)C(C)=C1CCC(O)=O
InChI: InChI=1S/C33H34N4O6/c1-7-20-19(6)32(42)37-27(20)14-25-18(5)23(10-12-31(40)41)29(35-25)15-28-22(9-11-30(38)39)17(4)24(34-28)13-26-16(3)21(8-2)33(43)36-26/h7-8,13-15,34-35H,1-2,9-12H2,3-6H3,(H,37,42)(H,38,39)(H,40,41)/b24-13+,27-14-,28-15-
Instrument: waters xevo g2 TOF
Instrument type: ESI-TOF
Ms type: MS2
Ion mode: POSITIVE
Ionization: ESI
Collision energy: 6.0000000
Column name: Acquity CSHC18
Retention time: 5.591 min
Base peak: 583.25583
Precursor m/z: 583.25583
Precursor type: [M+H]+
m/z	relative intensity
241.0972	2
253.0963	2
283.1082	762
284.1124	126
285.1222	229
295.1083	2
297.1236	51
299.1402	160
315.1347	183
462.2073	10
492.2167	73
494.2284	189
581.2402	674
582.2448	349
583.2548	641
584.2613	211
599.2539	158
603.2226	103
613.2666	999
631.2755	158
645.2913	416
646.2944	78
721.3058	78
735.2858	63
