Mass spectrum: 8-geranylumbelliferone; LC-ESI-ITFT; MS2; CE: 45eV;  [M-H]-
Name: 8-geranylumbelliferone
Class: coumarin
Formula: C19H22O3
Exact mass: 298.1569
SMILES: CC(=CCCC(=CCC1=C(C=CC2=C1OC(=O)C=C2)O)C)C
InChI: InChI=1S/C19H22O3/c1-13(2)5-4-6-14(3)7-10-16-17(20)11-8-15-9-12-18(21)22-19(15)16/h5,7-9,11-12,20H,4,6,10H2,1-3H3
Instrument: LTQ Orbitrap XL, Thermo Scientfic; Dionex Ultimate 300
Instrument type: LC-ESI-ITFT
Ms type: MS2
Ion mode: NEGATIVE
Ionization: ESI
Collision energy: 45eV
Column name: Alltima C18
Retention time: 26.47 min
Base peak: 297.1470
Precursor m/z: 297.1470
Precursor type: [M-H]-
m/z	relative intensity
144.0865	2
171.0532	2
173.9787	999
183.0482	34
211.0638	10
224.3104	5
227.0685	20
235.2172	10
253.1638	152
267.2467	7
282.9304	5
