Mass spectrum: FBP; LC-ESI-QTOF; MS2; CE: 100;  [M-H]-
Name: FBP
Class: Hexose phosphates
Formula: C6H14O12P2
Exact mass: 339.9960
SMILES: O[C@H]1[C@H](O)[C@@](O)(COP(O)(O)=O)O[C@@H]1COP(O)(O)=O
InChI: InChI=1S/C6H14O12P2/c7-4-3(1-16-19(10,11)12)18-6(9,5(4)8)2-17-20(13,14)15/h3-5,7-9H,1-2H2,(H2,10,11,12)(H2,13,14,15)/t3-,4-,5+,6-/m1/s1
Instrument: impact II
Instrument type: LC-ESI-QTOF
Ms type: MS2
Ion mode: NEGATIVE
Ionization: ESI
Collision energy: 100
Column name: Acquity CSHC18
Retention time: 1.937 min
Base peak: 338.9883
Precursor m/z: 338.9883
Precursor type: [M-H]-
m/z	relative intensity
62.9653	3
78.9463	2
78.9594	999
78.9693	20
79.0601	1
79.1091	1
79.1344	1
79.1694	1
79.1768	1
79.964	2
80.9637	2
96.9697	2
