Mass spectrum: N-Acetyl-L-aspartic acid; LC-ESI-ITFT; MS2; CE: 40;  [M-H]-
Name: N-Acetyl-L-aspartic acid
Class: Organic acids and derivatives; Carboxylic acids and derivatives; Amino acids, peptides, and analogues
Formula: C6H9NO5
Exact mass: 175.04807
SMILES: CC(=O)N[C@@H](CC(O)=O)C(O)=O
InChI: InChI=1S/C6H9NO5/c1-3(8)7-4(6(11)12)2-5(9)10/h4H,2H2,1H3,(H,7,8)(H,9,10)(H,11,12)/t4-/m0/s1
Instrument: Thermo Scientific Q-Exactive Focus
Instrument type: LC-ESI-ITFT
Ms type: MS2
Ion mode: NEGATIVE
Ionization: ESI
Collision energy: 40
Column name: Acquity CSHC18
Retention time: 1.480 min
Base peak: 174.04080
Precursor m/z: 174.04080
Precursor type: [M-H]-
m/z	relative intensity
58.0286	999
59.0126	78
71.0126	39
74.5235	42
79.8358	39
82.1575	42
88.0392	536
92.5136	74
92.5153	37
122.7313	53
