Mass spectrum: 3-Ethoxy-4-hydroxybenzaldehyde; LC-ESI-QTOF; MS2; CE: 15;  [M-H]-
Name: 3-Ethoxy-4-hydroxybenzaldehyde
Class: NA
Formula: C9H10O3
Exact mass: 166.0630
SMILES: CCOC1=C(C=CC(=C1)C=O)O
InChI: InChI=1S/C9H10O3/c1-2-12-9-5-7(6-10)3-4-8(9)11/h3-6,11H,2H2,1H3
Instrument: Bruker MicrOTOF-Q
Instrument type: LC-ESI-QTOF
Ms type: MS2
Ion mode: NEGATIVE
Ionization: ESI
Collision energy: 15
Column name: Acquity CSHC18
Retention time: NA
Base peak: 165.0557
Precursor m/z: 165.0557
Precursor type: [M-H]-
m/z	relative intensity
45.3069	31
46.1149	30
46.9877	31
47.7002	45
48.9592	38
50.0752	34
50.6944	29
51.2083	22
52.1369	39
53.3553	29
53.8925	29
54.6737	32
55.8481	30
57.171	43
58.4983	30
59.893	27
60.6626	20
61.1146	28
61.9495	23
63.3809	29
65.1195	28
65.9901	29
67.5246	37
69.4794	39
70.9563	28
72.7968	46
73.6446	25
76.1771	31
77.0792	29
77.6318	28
79.2584	30
80.827	32
81.9709	31
82.6117	35
83.4812	27
85.1174	31
85.6097	25
86.3775	27
87.2619	44
89.0591	31
90.5129	31
91.7814	132
93.0267	30
93.8208	41
94.7241	31
95.6198	18
96.3554	30
97.7138	35
99.4256	32
99.9875	30
100.9192	39
102.2014	33
102.7071	26
103.4073	35
104.0833	57
104.5515	28
107.018	31
107.4325	18
108.4905	464
109.8799	36
111.4365	39
111.9036	28
112.9072	29
113.586	37
115.3961	30
117.0665	31
119.0869	50
120.2424	35
123.4469	33
124.2553	25
125.2003	36
125.9143	42
126.3891	33
127.3477	24
128.2818	30
129.1417	30
131.173	29
131.6124	28
132.8927	30
134.3769	32
136.802	999
139.2235	19
140.7089	19
141.8153	21
142.4745	28
142.9198	23
143.5476	22
144.3236	21
159.9772	18
163.0409	38
165.1012	33
168.7409	18
170.7632	20
172.9347	34
174.0722	26
175.2747	36
186.2748	37
216.7538	18
225.0681	20
227.5512	37
236.503	25
240.8786	28
252.8762	41
264.8588	32
305.4048	25
330.8522	40
335.8107	18
366.5003	32
452.922	17
511.7331	17
575.6825	27
579.8965	25
622.8827	29
642.892	29
654.5908	33
771.7916	25
796.494	17
848.0686	18
850.7023	17
956.9363	26
