Mass spectrum: GUANOSINE MONOPHOSPHATE; LC-ESI-QTOF; MS2; CE: 20;  [M-H]-
Name: GUANOSINE MONOPHOSPHATE
Class: NA
Formula: C10H14N5O8P
Exact mass: 363.05800
SMILES: NC1=NC2=C(N=CN2[C@@H]2O[C@H](COP(O)(O)=O)[C@@H](O)[C@H]2O)C(=O)N1
InChI: InChI=1S/C10H14N5O8P/c11-10-13-7-4(8(18)14-10)12-2-15(7)9-6(17)5(16)3(23-9)1-22-24(19,20)21/h2-3,5-6,9,16-17H,1H2,(H2,19,20,21)(H3,11,13,14,18)/t3-,5-,6-,9-/m1/s1
Instrument: Agilent 6530Â Q-TOF LC/MS
Instrument type: LC-ESI-QTOF
Ms type: MS2
Ion mode: NEGATIVE
Ionization: ESI
Collision energy: 20
Column name: NA
Retention time: 0.200 min
Base peak: 362.04747
Precursor m/z: 362.04747
Precursor type: [M-H]-
Precursor intensity: 106
m/z	relative intensity
78.9725	99
96.964	122
133.0094	151
210.995	152
362.0511	999
