Mass spectrum: Isovanillin; LC-ESI-QTOF; MS2; CE: 15.00;  [M-CO+H]+
Name: Isovanillin
Class: NA
Formula: C8H8O3
Exact mass: 152.0473
SMILES: COC1=C(C=C(C=C1)C=O)O
InChI: InChI=1S/C8H8O3/c1-11-8-3-2-6(5-9)4-7(8)10/h2-5,10H,1H3
Instrument: Bruker MicrOTOF-Q
Instrument type: LC-ESI-QTOF
Ms type: MS2
Ion mode: POSITIVE
Ionization: ESI
Collision energy: 15.00
Column name: Acquity CSHC18
Retention time: NA
Base peak: 125.0597
Precursor m/z: 125.0597
Precursor type: [M-CO+H]+
m/z	relative intensity
96.04	197
110.03	616
124.04	999
125.05	292
126.04	91
