Mass spectrum: L-Cystine; LC-ESI-ITFT; MS2; CE: 60;  [M+H]+
Name: L-Cystine
Class: Organic acids and derivatives; Carboxylic acids and derivatives; Amino acids, peptides, and analogues
Formula: C6H12N2O4S2
Exact mass: 240.02385
SMILES: N[C@@H](CSSC[C@H](N)C(O)=O)C(O)=O
InChI: InChI=1S/C6H12N2O4S2/c7-3(5(9)10)1-13-14-2-4(8)6(11)12/h3-4H,1-2,7-8H2,(H,9,10)(H,11,12)/t3-,4-/m0/s1
Instrument: Thermo Scientific Q-Exactive Focus
Instrument type: LC-ESI-ITFT
Ms type: MS2
Ion mode: POSITIVE
Ionization: ESI
Collision energy: 60
Column name: Acquity CSHC18
Retention time: NA
Base peak: 241.03111
Precursor m/z: 241.03111
Precursor type: [M+H]+
m/z	relative intensity
55.0184	136
57.9878	12
58.9956	356
73.0289	50
74.0064	999
74.0074	12
74.0241	192
76.022	107
78.9675	25
124.22	9
