Mass spectrum: p-Coumaroyl quinic acid; LC-ESI-ITFT; MS2; CE: 35eV;  [M+H]+
Name: p-Coumaroyl quinic acid
Class: Hydroxycinnamic ester
Formula: C16H18O8
Exact mass: 338.1002
SMILES: C1C(C(C(CC1(C(=O)O)O)O)OC(=O)C=CC2=CC=C(C=C2)O)O
InChI: InChI=1S/C16H18O8/c17-10-4-1-9(2-5-10)3-6-13(20)24-14-11(18)7-16(23,15(21)22)8-12(14)19/h1-6,11-12,14,17-19,23H,7-8H2,(H,21,22)
Instrument: LTQ Orbitrap XL, Thermo Scientfic; Dionex Ultimate 300
Instrument type: LC-ESI-ITFT
Ms type: MS2
Ion mode: POSITIVE
Ionization: ESI
Collision energy: 35eV
Column name: Lichrospher C18 Column 250*4 5um, Interchim
Retention time: 33.21 min
Base peak: 339.1075
Precursor m/z: 339.1075
Precursor type: [M+H]+
m/z	relative intensity
99.0725	5
118.9199	42
127.0667	19
145.0213	19
146.9463	999
176.9698	160
195.149	12
203.0431	9
207.0902	51
261.0737	16
262.4	5
263.5912	5
264.298	13
265.1198	11
275.1425	7
277.2102	7
279.1054	10
285.1038	7
288.3624	7
290.5339	8
293.1001	24
294.0437	6
295.1591	7
296.9601	6
303.111	11
304.0831	5
306.4769	9
307.1324	16
309.1468	6
311.2154	15
312.2907	6
