Mass spectrum: N-Acetyl-L-phenylalanine; ESI-TOF; MS2; CE: 0.6458333;  [M+H]+
Name: N-Acetyl-L-phenylalanine
Class: NA
Formula: C11H13NO3
Exact mass: 207.08954
SMILES: CC(=O)NC(CC1=CC=CC=C1)C(O)=O
InChI: InChI=1S/C11H13NO3/c1-8(13)12-10(11(14)15)7-9-5-3-2-4-6-9/h2-6,10H,7H2,1H3,(H,12,13)(H,14,15)
Instrument: waters xevo g2 TOF
Instrument type: ESI-TOF
Ms type: MS2
Ion mode: POSITIVE
Ionization: ESI
Collision energy: 0.6458333
Column name: Acquity CSHC18
Retention time: 2.275 min
Base peak: 208.09754
Precursor m/z: 208.09754
Precursor type: [M+H]+
m/z	relative intensity
73.029	4
77.0393	97
79.0549	56
85.065	6
91.0548	102
93.0703	220
94.0734	16
101.0603	101
102.0467	9
103.0546	999
104.0581	99
107.0593	73
112.0481	28
118.0659	24
119.0734	7
120.1266	676
121.0844	128
122.0876	19
126.089	4
128.0794	3
129.0188	4
131.0498	81
132.0532	7
141.999	4
143.0402	3
145.019	2
148.0759	3
149.0601	27
150.0632	1
155.9873	3
160.0198	5
160.9903	5
162.0524	43
163.0947	10
166.0866	31
167.0471	11
170.0034	2
172.0274	9
174.0847	11
175.0503	5
177.0086	15
179.004	2
189.0237	15
190.0591	12
192.062	10
194.0272	7
199.0968	9
202.033	47
208.0974	12
211.0658	1
215.0128	8
217.0194	56
218.0681	12
219.033	19
220.0285	87
221.031	6
222.0227	26
227.054	2
230.0793	177
231.0824	22
233.0376	6
235.083	10
240.0101	1
244.0405	7
245.0601	2
246.0473	58
247.1071	1
252.0604	13
254.0331	5
263.0247	155
264.0258	27
265.0244	5
273.0404	13
276.0571	28
277.0615	8
278.0649	4
285.0823	1
288.0295	4
291.0922	11
318.0385	4
319.0311	2
337.0988	3
349.1786	1
365.1172	23
378.1018	29
379.1066	11
381.1243	9
383.0991	2
393.1401	4
409.1429	6
411.1249	15
412.1279	2
424.1089	3
425.1123	3
427.0963	6
438.1679	3
439.1436	26
440.1491	11
446.0927	6
451.0939	2
453.2355	111
454.1362	56
455.163	6
457.127	4
462.1438	3
464.0979	1
468.0991	54
469.1039	32
470.108	6
471.1068	9
473.101	4
480.0943	4
481.1888	1
488.0824	6
488.5801	2
491.0883	9
508.0589	6
523.0236	2
526.0371	3
553.0608	1
644.2558	5
645.261	1
668.2159	1
670.1494	1
675.172	1
685.1148	3
697.1675	7
699.172	1
715.1437	4
717.1549	2
719.152	13
730.116	13
731.1176	4
732.1143	2
734.1193	1
926.2402	9
927.242	5
943.2066	1
