Mass spectrum: N-ACETYLASPARTATE; LC-ESI-QTOF; MS2; CE: 10;  [M+H]+
Name: N-ACETYLASPARTATE
Class: NA
Formula: C6H9NO5
Exact mass: 175.04807
SMILES: CC(=O)N[C@@H](CC(O)=O)C(O)=O
InChI: InChI=1S/C6H9NO5/c1-3(8)7-4(6(11)12)2-5(9)10/h4H,2H2,1H3,(H,7,8)(H,9,10)(H,11,12)/t4-/m0/s1
Instrument: Agilent 6530Â Q-TOF LC/MS
Instrument type: LC-ESI-QTOF
Ms type: MS2
Ion mode: POSITIVE
Ionization: ESI
Collision energy: 10
Column name: NA
Retention time: 0.200 min
Base peak: 176.05215
Precursor m/z: 176.05215
Precursor type: [M+H]+
Precursor intensity: 88.5
m/z	relative intensity
43.0266	97
46.034	112
60.0461	116
70.0336	125
74.0389	223
88.0595	223
115.0639	272
116.0465	343
122.972	475
130.0394	608
134.0632	722
158.0529	999
