Mass spectrum: scopoletin; LC-ESI-ITFT; MS2; CE: 0.3;  [M+H]+
Name: scopoletin
Class: coumarins
Formula: C10H8O4
Exact mass: 192.0423
SMILES: COC1=C(C=C2C(=C1)C=CC(=O)O2)O
InChI: InChI=1S/C10H8O4/c1-13-9-4-6-2-3-10(12)14-8(6)5-7(9)11/h2-5,11H,1H3
Instrument: LTQ-Orbitrap XL hybrid mass spectrometer (Thermo Scientific)
Instrument type: LC-ESI-ITFT
Ms type: MS2
Ion mode: POSITIVE
Ionization: ESI
Collision energy: 0.3
Column name: Acquity CSHC18
Retention time: 5.600 min
Base peak: 193.0494
Precursor m/z: 193.0494
Precursor type: [M+H]+
Precursor intensity: 7795129
m/z	relative intensity
51.3917	7
52.3193	7
52.8731	8
53.4499	6
54.6176	7
54.6562	7
57.8023	8
58.3347	7
59.2681	8
59.442	10
61.676	8
71.7901	12
81.029	10
83.6256	8
85.4074	7
91.2444	7
125.5609	8
133.0282	999
134.0376	8
136.5151	11
137.0592	67
141.4732	7
149.0595	234
157.0262	16
161.0229	48
164.0461	15
165.0546	432
166.9432	42
178.026	167
191.8916	8
193.0496	964
