Mass spectrum: Uridine 5'-diphosphate; LC-ESI-QTOF; MS2; CE: -10, -35, -60V;  [M-H]-
Name: Uridine 5'-diphosphate
Class: NA
Formula: C9H14N2O12P2
Exact mass: 404.0022
SMILES: C1=CN(C(=O)NC1=O)C2C(C(C(O2)COP(=O)(O)OP(=O)(O)O)O)O
InChI: InChI=1S/C9H14N2O12P2/c12-5-1-2-11(9(15)10-5)8-7(14)6(13)4(22-8)3-21-25(19,20)23-24(16,17)18/h1-2,4,6-8,13-14H,3H2,(H,19,20)(H,10,12,15)(H2,16,17,18)
Instrument: TripleToF 5600; Sciex
Instrument type: LC-ESI-QTOF
Ms type: MS2
Ion mode: NEGATIVE
Ionization: ESI
Collision energy: -10, -35, -60V
Column name: Acquity CSHC18
Retention time: 12.902 min
Base peak: 403.0021
Precursor m/z: 403.0021
Precursor type: [M-H]-
Precursor intensity: 174713.4
m/z	relative intensity
78.9602	333
96.9699	24
111.0228	94
145.0838	5
158.9276	477
174.9784	17
174.9878	17
176.9391	84
192.9918	17
272.9654	75
290.9864	17
305.0276	69
384.9918	87
400.9876	43
403	999
