Mass spectrum: Cadaverine; LC-ESI-ITFT; MS2; CE: 20;  [M+H]+
Name: Cadaverine
Class: Organic nitrogen compounds; Organonitrogen compounds; Amines
Formula: C5H14N2
Exact mass: 102.11570
SMILES: NCCCCCN
InChI: InChI=1S/C5H14N2/c6-4-2-1-3-5-7/h1-7H2
Instrument: Thermo Scientific Q-Exactive Focus
Instrument type: LC-ESI-ITFT
Ms type: MS2
Ion mode: POSITIVE
Ionization: ESI
Collision energy: 20
Column name: Acquity CSHC18
Retention time: 0.632 min
Base peak: 103.12298
Precursor m/z: 103.12298
Precursor type: [M+H]+
m/z	relative intensity
53.0027	11
67.0547	13
69.0703	361
69.0713	2
79.2286	2
86.0968	999
100.0809	3
108.5989	2
118.7272	2
122.4314	2
