Mass spectrum: Ginsenoside Rb3; LC-ESI-QFT; MS2; CE: 15,30,45 (NCE);  [M+NH4]+
Name: Ginsenoside Rb3
Class: NA
Formula: C53H90O22
Exact mass: 1078.5924
SMILES: CC(C)=CCCC(C)(OC1OC(COC2OCC(O)C(O)C2O)C(O)C(O)C1O)C1CCC2(C)C1C(O)CC1C3(C)CCC(OC4OC(CO)C(O)C(O)C4OC4OC(CO)C(O)C(O)C4O)C(C)(C)C3CCC21C
InChI: InChI=1S/C53H90O22/c1-23(2)10-9-14-53(8,75-47-43(67)39(63)37(61)29(72-47)22-69-45-41(65)34(58)26(57)21-68-45)24-11-16-52(7)33(24)25(56)18-31-50(5)15-13-32(49(3,4)30(50)12-17-51(31,52)6)73-48-44(40(64)36(60)28(20-55)71-48)74-46-42(66)38(62)35(59)27(19-54)70-46/h10,24-48,54-67H,9,11-22H2,1-8H3
Instrument: QE Focus, Thermo Scientfic; UPLC I-Class, Waters
Instrument type: LC-ESI-QFT
Ms type: MS2
Ion mode: POSITIVE
Ionization: ESI
Collision energy: 15,30,45 (NCE)
Column name: Acquity CSHC18
Retention time: 2.857 min
Base peak: 1096.6310
Precursor m/z: 1096.6310
Precursor type: [M+NH4]+
Precursor intensity: 1666388
m/z	relative intensity
161.1324	64
163.0599	69
175.1478	41
175.8847	26
189.1639	74
191.1784	57
203.1789	130
207.1753	45
217.1953	142
241.0727	32
257.2282	30
259.0815	60
267.2572	28
287.3624	29
295.1032	325
325.1136	691
330.1409	248
351.3088	52
352.0634	30
361.4701	32
369.3214	39
376.4284	31
382.694	30
407.3677	911
425.3788	999
443.3892	134
457.1565	131
487.1681	70
488.9982	31
587.4313	63
605.4474	147
689.1096	32
749.4861	61
767.4886	132
784.5258	130
928.2665	40
