Mass spectrum: Fructose; LC-ESI-QTOF; MS2; CE: 15.00;  [M+Na]+
Name: Fructose
Class: NA
Formula: C6H12O6
Exact mass: 180.0634
SMILES: C(C(C(C(C(=O)CO)O)O)O)O
InChI: InChI=1S/C6H12O6/c7-1-3(9)5(11)6(12)4(10)2-8/h3,5-9,11-12H,1-2H2
Instrument: Bruker MicrOTOF-Q
Instrument type: LC-ESI-QTOF
Ms type: MS2
Ion mode: POSITIVE
Ionization: ESI
Collision energy: 15.00
Column name: Acquity CSHC18
Retention time: NA
Base peak: 203.0526
Precursor m/z: 203.0526
Precursor type: [M+Na]+
m/z	relative intensity
157.0042	6
168.0285	8
185.0505	6
202.9282	7
203.0526	999
203.3257	7
203.4297	5
204.0527	62
427.3154	6
570.3891	8
