Mass spectrum: Citral; APCI-ITFT; MS2; CE: 35 CID;  [M+H]+
Name: Citral
Class: NA
Formula: C10H16O
Exact mass: 152.12012
SMILES: CC(=CCCC(=CC=O)C)C
InChI: InChI=1S/C10H16O/c1-9(2)5-4-6-10(3)7-8-11/h5,7-8H,4,6H2,1-3H3
Instrument: Orbitrap Elite
Instrument type: APCI-ITFT
Ms type: MS2
Ion mode: POSITIVE
Ionization: APCI
Collision energy: 35 CID
Column name: Acquity CSHC18
Retention time: 0.097 min
Base peak: 153.12710
Precursor m/z: 153.12710
Precursor type: [M+H]+
Precursor intensity: 11976590
m/z	relative intensity
71.0491	2
77.0383	3
79.054	26
81.0697	178
82.0729	20
83.0488	17
83.0854	7
91.054	20
92.0573	4
93.0697	113
94.073	6
95.049	20
95.0855	79
96.0526	7
96.0885	9
97.0285	3
97.0645	69
97.1013	5
105.0448	5
105.0695	11
106.0737	13
107.0853	204
108.0884	16
109.0649	36
109.101	109
110.0683	44
110.104	49
111.0438	14
111.0799	97
111.1079	3
119.0601	3
119.0857	2
121.0289	4
121.0653	6
121.1009	14
122.1042	4
123.0812	7
123.1167	16
124.0839	23
124.1197	77
125.0592	8
125.0964	68
125.1238	7
134.1042	29
135.0442	5
135.0805	45
135.1166	108
137.0928	5
138.0673	4
139.0424	5
151.1171	3
152.0623	116
152.079	22
152.1151	835
153.055	36
153.0696	115
153.0907	437
153.1279	999
