Mass spectrum: L-Histidine; LC-ESI-QTOF; MS2; CE: 15.00;  [M+H]+
Name: L-Histidine
Class: NA
Formula: C6H9N3O2
Exact mass: 155.0695
SMILES: C1=C(NC=N1)CC(C(=O)O)N
InChI: InChI=1S/C6H9N3O2/c7-5(6(10)11)1-4-2-8-3-9-4/h2-3,5H,1,7H2,(H,8,9)(H,10,11)
Instrument: Bruker MicrOTOF-Q
Instrument type: LC-ESI-QTOF
Ms type: MS2
Ion mode: POSITIVE
Ionization: ESI
Collision energy: 15.00
Column name: Acquity CSHC18
Retention time: NA
Base peak: 156.0768
Precursor m/z: 156.0768
Precursor type: [M+H]+
m/z	relative intensity
83.1115	11
93.0399	12
96.7098	11
110.0729	999
110.2268	8
110.2867	8
111.0676	115
138.0724	7
139.0514	35
140.0515	7
155.5574	8
156.0764	737
157.0271	12
157.0841	47
