Mass spectrum: 1-Methylhistamine; ESI-TOF; MS2; CE: 6.0000000;  [M+H]+
Name: 1-Methylhistamine
Class: NA
Formula: C6H11N3
Exact mass: 125.09530
SMILES: CN1C=NC(CCN)=C1
InChI: InChI=1S/C6H11N3/c1-9-4-6(2-3-7)8-5-9/h4-5H,2-3,7H2,1H3
Instrument: waters xevo g2 TOF
Instrument type: ESI-TOF
Ms type: MS2
Ion mode: POSITIVE
Ionization: ESI
Collision energy: 6.0000000
Column name: Acquity CSHC18
Retention time: 0.455 min
Base peak: 126.10330
Precursor m/z: 126.10330
Precursor type: [M+H]+
m/z	relative intensity
109.0765	472
110.0794	23
113.0787	14
124.036	4
126.1894	379
127.1057	999
128.1084	25
131.9813	4
152.0339	5
160.9895	11
162.9911	7
168.9951	7
170.9979	8
172.9775	103
180.0195	1
182.0282	51
186.0212	7
188.0383	5
205.9868	5
206.9957	7
210.0535	19
217.1045	15
224.0313	33
226.0277	584
227.0304	71
228.0284	454
229.0457	45
230.0237	175
245.0196	9
246.8645	5
258.1692	25
304.1102	46
305.1165	76
306.1209	8
307.1175	420
308.1192	66
309.113	170
315.1183	2
321.0095	3
335.1529	3
349.1229	4
351.1324	115
352.1256	21
353.1241	227
354.1257	38
355.1237	9
356.1207	12
370.1129	10
371.9599	14
422.0442	12
424.0442	4
450.0412	12
452.0395	10
468.0518	14
487.0249	7
491.0215	2
495.0558	10
496.0566	5
497.0535	87
498.0545	22
499.0555	25
501.0517	17
