Mass spectrum: Uric acid; LC-ESI-ITFT; MS2; CE: 20;  [M+H]+
Name: Uric acid
Class: Organoheterocyclic compounds; Imidazopyrimidines; Purines and purine derivatives
Formula: C5H4N4O3
Exact mass: 168.02834
SMILES: O=C1NC2=C(N1)C(=O)NC(=O)N2
InChI: InChI=1S/C5H4N4O3/c10-3-1-2(7-4(11)6-1)8-5(12)9-3/h(H4,6,7,8,9,10,11,12)
Instrument: Thermo Scientific Q-Exactive Focus
Instrument type: LC-ESI-ITFT
Ms type: MS2
Ion mode: POSITIVE
Ionization: ESI
Collision energy: 20
Column name: Acquity CSHC18
Retention time: 0.632 min
Base peak: 169.03561
Precursor m/z: 169.03561
Precursor type: [M+H]+
m/z	relative intensity
81.0703	446
98.0352	276
100.0246	412
105.0035	472
109.065	276
118.035	469
126.0299	999
128.0194	263
141.0407	335
170.0196	399
