Mass spectrum: 1-octadecylglycero-3-phosphocholine; LC-ESI-ITFT; MS2; CE: 40;  [M+H]+
Name: 1-octadecylglycero-3-phosphocholine
Class: Lipids and lipid-like molecules; Glycerophospholipids; Glycerophosphocholines
Formula: C26H56NO6P
Exact mass: 509.38453
SMILES: CCCCCCCCCCCCCCCCCCOCC(O)COP([O-])(=O)OCC[N+](C)(C)C
InChI: InChI=1S/C26H56NO6P/c1-5-6-7-8-9-10-11-12-13-14-15-16-17-18-19-20-22-31-24-26(28)25-33-34(29,30)32-23-21-27(2,3)4/h26,28H,5-25H2,1-4H3
Instrument: Thermo Scientific Q-Exactive Focus
Instrument type: LC-ESI-ITFT
Ms type: MS2
Ion mode: POSITIVE
Ionization: ESI
Collision energy: 40
Column name: Acquity CSHC18
Retention time: 1.467 min
Base peak: 510.39182
Precursor m/z: 510.39182
Precursor type: [M+H]+
m/z	relative intensity
57.0704	17
60.0813	86
71.0734	15
71.0859	16
75.0444	10
85.1014	8
86.0968	252
104.1073	999
124.9998	136
184.0732	302
