Mass spectrum: GALACTARATE; LC-ESI-QTOF; MS2; CE: 40;  [M-H]-
Name: GALACTARATE
Class: NA
Formula: C6H10O8
Exact mass: 210.03757
SMILES: O[C@@H]([C@@H](O)[C@H](O)C(O)=O)[C@@H](O)C(O)=O
InChI: InChI=1S/C6H10O8/c7-1(3(9)5(11)12)2(8)4(10)6(13)14/h1-4,7-10H,(H,11,12)(H,13,14)/t1-,2+,3+,4-
Instrument: Agilent 6530Â Q-TOF LC/MS
Instrument type: LC-ESI-QTOF
Ms type: MS2
Ion mode: NEGATIVE
Ionization: ESI
Collision energy: 40
Column name: NA
Retention time: 0.200 min
Base peak: 209.02665
Precursor m/z: 209.02665
Precursor type: [M-H]-
Precursor intensity: 163
m/z	relative intensity
41.014	116
43.0287	141
45.0031	213
53.0029	250
55.0301	368
57.0223	458
59.0266	665
71.0276	744
73.0058	749
75.0111	838
85.0244	999
