Mass spectrum: Isoferulic acid; ESI-TOF; MS2; CE: 6.0000000;  [M+H]+
Name: Isoferulic acid
Class: NA
Formula: C10H10O4
Exact mass: 194.05791
SMILES: COC1=C(O)C=C(C=CC(O)=O)C=C1
InChI: InChI=1S/C10H10O4/c1-14-9-4-2-7(6-8(9)11)3-5-10(12)13/h2-6,11H,1H3,(H,12,13)
Instrument: waters xevo g2 TOF
Instrument type: ESI-TOF
Ms type: MS2
Ion mode: POSITIVE
Ionization: ESI
Collision energy: 6.0000000
Column name: Acquity CSHC18
Retention time: 2.282 min
Base peak: 195.06591
Precursor m/z: 195.06591
Precursor type: [M+H]+
m/z	relative intensity
89.0394	13
103.0551	3
114.0134	14
117.0343	75
118.0381	7
121.0657	8
125.0603	4
133.0473	12
134.0373	4
135.0444	8
135.9922	1
137.9882	38
145.0291	177
146.0327	16
147.0439	12
149.0602	138
150.0639	15
153.036	17
157.0385	1
162.0318	17
163.0395	206
164.0431	21
174.0231	26
177.2705	999
179.0606	154
180.2236	6
183.0665	1
186.0555	2
193.0502	47
194.0866	19
195.0656	517
196.0692	61
197.0557	4
201.0141	14
207.0307	3
209.082	2
210.1106	3
211.0283	2
214.039	2
215.0164	3
216.04	25
217.0478	160
218.0517	19
223.0512	18
224.0376	1
233.0129	5
239.0298	19
240.034	1
245.034	1
247.0439	34
247.9998	3
257.0829	4
265.0616	1
274.0387	8
277.0762	3
279.0189	4
280.0386	3
283.106	3
289.0752	4
289.5769	1
290.0246	16
291.0326	2
293.0799	5
297.0769	4
302.0655	3
307.0548	2
309.1056	6
310.0745	3
310.5637	1
311.0788	35
311.5704	11
312.0296	12
315.0864	4
323.0923	35
324.0962	8
325.1063	41
326.1099	8
327.0871	75
328.0898	14
331.5805	1
333.0572	1
340.0957	1
341.1027	32
342.1074	9
343.1174	9
351.086	90
352.0902	20
353.0684	2
355.1174	5
357.1361	1
363.0698	3
367.0816	14
369.0116	88
370.1021	40
371.0721	11
372.0816	1
383.0955	41
384.0697	3
384.5892	1
385.0918	69
385.5963	1
386.099	25
387.0996	6
393.0771	12
406.0489	6
406.5837	2
407.0401	21
407.592	13
408.0597	38
408.5996	31
409.0476	120
410.0929	55
411.0564	8
423.0577	3
427.0392	5
428.0744	37
429.043	5
431.129	4
433.0904	2
434.1238	5
435.1272	2
438.0413	2
439.1004	28
440.0706	1
441.0761	2
442.0356	34
443.0417	60
444.0431	11
445.0627	86
446.0501	21
447.0406	32
448.0441	8
449.0802	17
450.116	5
457.083	2
459.0964	15
459.5428	1
460.0493	5
461.0528	3
463.0548	1
465.0548	8
466.0871	4
467.0855	13
468.0954	3
469.0836	5
470.0768	1
475.0659	3
476.0602	1
483.0611	5
484.0674	9
486.0698	17
487.0736	3
488.0664	7
525.2042	2
531.5854	1
542.5755	1
543.1274	9
544.1323	2
553.5596	2
554.0726	1
562.1426	2
577.1382	11
578.1422	3
599.1259	3
601.1309	9
602.1351	3
603.1419	6
604.1453	1
605.1474	23
606.1506	10
607.1409	60
608.1409	19
609.1468	3
619.1076	22
620.1164	8
621.1297	186
622.1317	60
623.1374	18
627.143	8
628.1483	1
632.0924	5
634.0859	50
635.0893	31
636.0933	357
637.0967	3
638.1001	48
639.1143	38
641.1014	7
642.1006	2
643.107	4
645.0965	1
647.5844	2
648.085	2
648.5831	1
654.081	1
655.0686	1
657.5725	1
658.0759	4
659.1104	1
668.5589	1
670.0627	2
680.0523	1
795.1874	5
797.1897	2
799.1991	3
800.1978	1
801.2012	1
815.1836	13
816.1883	4
817.1832	1
826.1395	6
827.1272	4
828.134	7
829.1389	2
831.1453	5
869.1004	4
873.1021	2
874.1142	5
882.0672	1
884.067	7
885.0716	2
888.0708	3
890.0802	1
896.0736	1
897.0859	1
913.083	1
915.0934	3
1075.1048	1
1076.1102	1
1077.1184	5
