Mass spectrum: Saccharopine; LC-ESI-ITFT; MS2; CE: 30;  [M-H]-
Name: Saccharopine
Class: Organic acids and derivatives; Carboxylic acids and derivatives; Amino acids, peptides, and analogues
Formula: C11H20N2O6
Exact mass: 276.13214
SMILES: N[C@@H](CCCCN[C@@H](CCC(O)=O)C(O)=O)C(O)=O
InChI: InChI=1S/C11H20N2O6/c12-7(10(16)17)3-1-2-6-13-8(11(18)19)4-5-9(14)15/h7-8,13H,1-6,12H2,(H,14,15)(H,16,17)(H,18,19)/t7-,8-/m0/s1
Instrument: Thermo Scientific Q-Exactive Focus
Instrument type: LC-ESI-ITFT
Ms type: MS2
Ion mode: NEGATIVE
Ionization: ESI
Collision energy: 30
Column name: Acquity CSHC18
Retention time: NA
Base peak: 275.12485
Precursor m/z: 275.12485
Precursor type: [M-H]-
m/z	relative intensity
84.0442	407
85.0282	129
102.0548	213
128.0341	102
128.0705	283
145.0971	999
178.0865	100
185.1287	98
196.0971	149
213.1239	196
