Mass spectrum: Germanasim E; LC-ESI-QTOF; MS2; CE: 20-40eV;  [M+H]+
Name: Germanasim E
Class: Flavonoid C- glycosides
Formula: C29H32O16
Exact mass: 636.1690
SMILES: COC1=C2C(=CC3=C1OCO3)OC=C(C4=CC=C(C=C4)OC5(C(C(C(C(COC6(C(C(C(C(CO)(O6)[H])(O)[H])(O)[H])(O)[H])[H])(O5)[H])(O)[H])(O)[H])(O)[H])[H])C2=O
InChI: InChI=1S/C29H32O16/c1-38-27-18-14(6-15-26(27)42-10-41-15)39-8-13(19(18)31)11-2-4-12(5-3-11)43-29-25(37)23(35)21(33)17(45-29)9-40-28-24(36)22(34)20(32)16(7-30)44-28/h2-6,8,16-17,20-25,28-30,32-37H,7,9-10H2,1H3
Instrument: Impact II, Bruker; Dionex 3000, Thermo Scientific
Instrument type: LC-ESI-QTOF
Ms type: MS2
Ion mode: POSITIVE
Ionization: ESI
Collision energy: 20-40eV
Column name: Acquity CSHC18
Retention time: 5.976 min
Base peak: 637.1767
Precursor m/z: 637.1767
Precursor type: [M+H]+
Precursor intensity: 14641.88
m/z	relative intensity
121.0643	401
145.0761	459
173.0811	486
309.0608	529
311.0757	555
323.0731	787
338.0973	965
355.1131	999
