Mass spectrum: Chlorogenic acid; LC-ESI-QTOF; MS2; CE: 50eV;  [M+Na]+
Name: Chlorogenic acid
Class: quinic acid derivative
Formula: C16H18O9
Exact mass: 354.0951
SMILES: C1C(C(C(CC1(C(=O)O)O)OC(=O)C=CC2=CC(=C(C=C2)O)O)O)O
InChI: InChI=1S/C16H18O9/c17-9-3-1-8(5-10(9)18)2-4-13(20)25-12-7-16(24,15(22)23)6-11(19)14(12)21/h1-5,11-12,14,17-19,21,24H,6-7H2,(H,22,23)
Instrument: TIMS-TOF Pro, Bruker Daltonik; Elute UHPLC System, Bruker Daltonik
Instrument type: LC-ESI-QTOF
Ms type: MS2
Ion mode: POSITIVE
Ionization: ESI
Collision energy: 50eV
Column name: Acquity CSHC18
Retention time: 4.137 min
Base peak: 377.0831
Precursor m/z: 377.0831
Precursor type: [M+Na]+
Precursor intensity: 14727.13
m/z	relative intensity
359.0522	59
377.0277	107
377.0831	999
