Mass spectrum: N-ACETYLASPARAGINE; LC-ESI-QFT; MS2; CE: 30eV;  [M+H]+
Name: N-ACETYLASPARAGINE
Class: NA
Formula: C6H10N2O4
Exact mass: 174.06406
SMILES: CC(=O)N[C@@H](CC(N)=O)C(O)=O
InChI: InChI=1S/C6H10N2O4/c1-3(9)8-4(6(11)12)2-5(7)10/h4H,2H2,1H3,(H2,7,10)(H,8,9)(H,11,12)/t4-/m0/s1
Instrument: Q-Exactive Orbitrap, Thermo Scientfic; Ultimate 3000 HPLC, Thermo Scientfic
Instrument type: LC-ESI-QFT
Ms type: MS2
Ion mode: POSITIVE
Ionization: ESI
Collision energy: 30eV
Column name: Acquity CSHC18
Retention time: 0.618 min
Base peak: 175.0713
Precursor m/z: 175.0713
Precursor type: [M+H]+
Precursor intensity: 190
m/z	relative intensity
52.2572	1
60.0452	91
61.8578	1
66.0556	2
66.9383	2
68.0985	1
68.3977	1
69.6672	1
70.0295	312
74.0244	51
74.0609	3
87.0275	1
87.056	404
88.04	984
89.0432	2
98.0241	22
99.0082	41
115.0508	32
116.0347	137
117.8984	2
120.5759	2
129.0663	23
129.9764	1
130.0503	612
131.0536	12
133.0611	693
134.0646	4
140.0346	5
152.6282	2
157.0611	13
158.0452	999
158.1179	66
158.7549	2
159.0485	25
168.1359	1
174.9729	2
175.0717	32
176.1286	8
176.9505	2
