Mass spectrum: CITICOLINE; LC-ESI-QFT; MS2; CE: 30eV;  [M+H]+
Name: CITICOLINE
Class: NA
Formula: C14H26N4O11P2
Exact mass: 488.10733
SMILES: C[N+](C)(C)CCOP([O-])(=O)OP(O)(=O)OC[C@H]1O[C@H]([C@H](O)[C@@H]1O)N1C=CC(N)=NC1=O
InChI: InChI=1S/C14H26N4O11P2/c1-18(2,3)6-7-26-30(22,23)29-31(24,25)27-8-9-11(19)12(20)13(28-9)17-5-4-10(15)16-14(17)21/h4-5,9,11-13,19-20H,6-8H2,1-3H3,(H3-,15,16,21,22,23,24,25)/t9-,11-,12-,13-/m1/s1
Instrument: Q-Exactive Orbitrap, Thermo Scientfic; Ultimate 3000 HPLC, Thermo Scientfic
Instrument type: LC-ESI-QFT
Ms type: MS2
Ion mode: POSITIVE
Ionization: ESI
Collision energy: 30eV
Column name: Acquity CSHC18
Retention time: 0.596 min
Base peak: 489.1146
Precursor m/z: 489.1146
Precursor type: [M+H]+
Precursor intensity: 127
m/z	relative intensity
54.5602	1
58.0657	1
63.7771	1
65.6335	1
67.9883	1
75.8428	1
80.8251	1
86.0971	9
88.365	1
95.7614	1
97.0291	7
104.1075	15
108.8808	1
112.0511	23
112.1766	1
117.8906	1
125.0001	2
129.7804	1
145.9354	1
146.9459	1
166.0617	2
169.5665	1
184.0737	501
185.0772	7
223.4788	1
226.0826	50
228.3632	1
246.0293	16
248.5873	1
264.04	999
265.044	11
277.1061	2
280.095	37
295.8685	1
360.0616	108
361.0642	2
366.4023	1
378.0721	25
399.7897	1
