Mass spectrum: 5-trans Prostaglandin F2-alpha; ESI-TOF; MS2; CE: 0.6458333;  [M+H]+
Name: 5-trans Prostaglandin F2-alpha
Class: NA
Formula: C20H34O5
Exact mass: 354.24062
SMILES: O[C@@H]1[C@H](C/C=C/CCCC(O)=O)[C@@H](/C=C/[C@@H](O)CCCCC)[C@H](O)C1
InChI: InChI=1S/C20H34O5/c1-2-3-6-9-15(21)12-13-17-16(18(22)14-19(17)23)10-7-4-5-8-11-20(24)25/h4,7,12-13,15-19,21-23H,2-3,5-6,8-11,14H2,1H3,(H,24,25)/b7-4+,13-12+/t15-,16+,17+,18-,19+/m0/s1
Instrument: waters xevo g2 TOF
Instrument type: ESI-TOF
Ms type: MS2
Ion mode: POSITIVE
Ionization: ESI
Collision energy: 0.6458333
Column name: Acquity CSHC18
Retention time: 3.617 min
Base peak: 355.24862
Precursor m/z: 355.24862
Precursor type: [M+H]+
m/z	relative intensity
79.0548	139
81.07	226
87.045	65
91.055	268
93.0702	184
107.0866	228
109.1034	57
117.0715	283
119.0873	297
121.1026	199
128.064	63
129.0694	492
131.0865	744
133.1022	199
135.1013	33
143.0858	442
145.1023	463
147.1017	162
155.0861	139
157.1023	420
158.1062	55
159.1191	160
161.134	64
169.1033	245
171.1191	473
172.1219	35
173.0964	119
175.1509	74
181.103	155
182.0017	105
185.0974	243
187.1124	180
188.0959	28
189.1479	21
197.1336	52
199.1139	238
201.1258	38
203.1453	34
205.1583	13
209.1351	107
217.1618	4
219.1346	4
223.1429	27
229.1967	50
231.1362	4
239.1798	105
241.1953	192
245.1923	24
257.1905	126
258.1929	4
259.2046	4
263.1994	19
264.2042	4
265.2041	52
266.2184	15
273.2023	21
275.2006	4
276.2046	28
277.2112	41
283.2059	339
284.2096	51
285.219	4
291.2341	4
293.2116	4
299.1995	4
301.2173	820
302.2204	170
303.2314	71
304.2322	4
311.1842	4
314.1346	41
315.1852	26
317.2071	11
318.1291	450
319.2277	174
320.2319	4
321.2375	4
331.1583	838
332.1614	167
335.2195	4
337.2368	36
338.2413	4
346.127	279
347.1322	999
348.1343	147
356.2103	4
356.713	4
