Mass spectrum: GUANIDINOACETATE; LC-ESI-QFT; MS2; CE: 30eV;  [M+H]+
Name: GUANIDINOACETATE
Class: NA
Formula: C3H7N3O2
Exact mass: 117.05383
SMILES: NC(=N)NCC(O)=O
InChI: InChI=1S/C3H7N3O2/c4-3(5)6-1-2(7)8/h1H2,(H,7,8)(H4,4,5,6)
Instrument: Q-Exactive Orbitrap, Thermo Scientfic; Ultimate 3000 HPLC, Thermo Scientfic
Instrument type: LC-ESI-QFT
Ms type: MS2
Ion mode: POSITIVE
Ionization: ESI
Collision energy: 30eV
Column name: Acquity CSHC18
Retention time: 0.533 min
Base peak: 118.0611
Precursor m/z: 118.0611
Precursor type: [M+H]+
Precursor intensity: 155
m/z	relative intensity
55.0299	18
58.0659	58
59.0737	66
72.0563	265
72.0815	1
73.0404	96
73.0533	1
73.0597	2
76.04	308
77.0434	1
91.0547	4
100.051	6
100.1126	1
101.0351	209
102.0385	1
116.9723	3
117.9801	1
118.0616	324
118.0867	999
119.0648	5
119.0859	1
119.09	20
