Mass spectrum: Cysteineglutathione disulfide; ESI-TOF; MS2; CE: 0.6458333;  [M+H]+
Name: Cysteineglutathione disulfide
Class: NA
Formula: C13H22N4O8S2
Exact mass: 426.08791
SMILES: NC(CCC(=O)NC(CSSCC(N)C(O)=O)C(=O)NCC(O)=O)C(O)=O
InChI: InChI=1S/C13H22N4O8S2/c14-6(12(22)23)1-2-9(18)17-8(11(21)16-3-10(19)20)5-27-26-4-7(15)13(24)25/h6-8H,1-5,14-15H2,(H,16,21)(H,17,18)(H,19,20)(H,22,23)(H,24,25)
Instrument: waters xevo g2 TOF
Instrument type: ESI-TOF
Ms type: MS2
Ion mode: POSITIVE
Ionization: ESI
Collision energy: 0.6458333
Column name: Acquity CSHC18
Retention time: 0.572 min
Base peak: 427.09591
Precursor m/z: 427.09591
Precursor type: [M+H]+
m/z	relative intensity
84.0451	436
84.0458	202
96.9612	5
96.9615	5
122.0275	142
129.0528	5
130.0505	703
142.0299	5
149.002	5
162.0223	5
177.0332	999
179.0493	5
231.0435	558
231.0449	162
233.0603	5
237.0355	5
245.0594	5
245.0603	5
292.0419	5
298.0536	556
308.0909	5
339.0541	5
352.0614	5
427.0954	57
427.0971	5
428.0982	5
429.0931	5
