Mass spectrum: Budlein A; LC-ESI-ITFT; MS2; CE: 50eV;  [M+H]+
Name: Budlein A
Class: Sesquiterpenelactone; Heliangolide
Formula: C20H22O7
Exact mass: 374.1366
SMILES: C/C=C(/C)\C(=O)O[C@@H]1C[C@@]2(C(=O)C=C(O2)/C(=C\[C@@H]3[C@@H]1C(=C)C(=O)O3)/CO)C
InChI: InChI=1S/C20H22O7/c1-5-10(2)18(23)26-15-8-20(4)16(22)7-13(27-20)12(9-21)6-14-17(15)11(3)19(24)25-14/h5-7,14-15,17,21H,3,8-9H2,1-2,4H3/b10-5-,12-6-/t14-,15-,17+,20-/m1/s1
Instrument: Q Exactive Plus, ThermoFisher Scientific
Instrument type: LC-ESI-ITFT
Ms type: MS2
Ion mode: POSITIVE
Ionization: ESI
Collision energy: 50eV
Column name: Acquity CSHC18
Retention time: 5.844 min
Base peak: 375.1447
Precursor m/z: 375.1447
Precursor type: [M+H]+
Precursor intensity: 27238870
m/z	relative intensity
55.0553	145
69.7469	17
83.0501	999
89.1623	8
127.1999	7
133.0635	8
152.6459	8
183.0813	15
187.0762	8
201.0897	17
211.0751	19
213.0904	18
229.0848	66
239.0711	15
257.0813	108
275.0914	16
293.1059	14
315.9803	8
