Mass spectrum: 7-Methylkaempferol; LC-ESI-QTOF; MS2; CE: 50eV;  [M-H]-
Name: 7-Methylkaempferol
Class: Flavonol
Formula: C16H12O6
Exact mass: 300.0634
SMILES: COC1=CC(=C2C(=C1)OC(=C(C2=O)O)C3=CC=C(C=C3)O)O
InChI: InChI=1S/C16H12O6/c1-21-10-6-11(18)13-12(7-10)22-16(15(20)14(13)19)8-2-4-9(17)5-3-8/h2-7,17-18,20H,1H3
Instrument: TIMS-TOF Pro, Bruker Daltonik; Elute UHPLC System, Bruker Daltonik
Instrument type: LC-ESI-QTOF
Ms type: MS2
Ion mode: NEGATIVE
Ionization: ESI
Collision energy: 50eV
Column name: Acquity CSHC18
Retention time: 9.082 min
Base peak: 299.0511
Precursor m/z: 299.0511
Precursor type: [M-H]-
Precursor intensity: 546594.4
m/z	relative intensity
23.8841	1
27.3141	2
31.721	2
34.9593	4
36.9895	3
39.2972	3
43.3554	1
44.7515	3
49.2071	3
51.0231	5
51.994	2
58.9533	2
60.814	3
61.6233	2
62.1753	2
63.0236	49
64.0252	5
65.0414	64
65.3313	2
66.0059	9
66.6647	6
75.0232	3
77.0387	67
78.0105	9
78.3981	2
80.0245	1
82.0085	2
83.0125	20
83.3922	2
85.0054	3
89.0025	62
89.3822	1
90.0049	7
91.0175	22
92.0251	5
93.0322	112
94.0034	70
94.2865	2
95.012	32
96.0167	3
97.0283	74
97.6147	2
98.0326	2
99.9354	2
102.9735	1
104.0258	7
105.0333	142
105.3098	2
105.5219	2
106.0197	12
107.0107	37
108.0195	27
108.3868	3
109.0263	10
109.3542	3
110.0346	2
112.4276	3
117.0328	19
117.6563	3
119.013	10
120.0196	10
121.027	50
122.0169	53
123.044	9
123.5798	2
124.0131	4
132.0186	18
133.0278	13
133.9971	3
135.0064	32
135.5621	2
137.0163	4
138.0296	8
141.0318	5
142.0392	5
143.0482	5
144.0513	5
145.0256	32
146.0337	2
147.009	5
148.7308	4
149.9929	54
150.9988	6
152.006	3
153.0049	2
154.0423	4
155.0478	12
156.0567	9
159.0431	5
159.3932	1
161.324	1
163.0006	107
163.2986	5
163.4377	1
164.0046	10
164.526	2
165.0158	213
165.3785	2
165.7051	1
166.0199	12
166.4773	2
166.8641	2
167.0474	17
168.0557	2
171.0429	5
178.0249	23
179.0277	2
181.9977	2
183.0415	10
184.0476	8
190.7384	3
197.0216	2
199.0363	5
200.0452	7
206.019	28
207.0205	1
210.0305	2
211.0348	5
212.0439	19
213.0484	3
214.053	2
227.0356	9
228.0416	8
229.0404	2
230.0556	3
238.0226	2
239.0308	3
240.0386	99
241.0412	10
242.041	1
243.0626	73
244.0665	5
245.0652	1
253.0474	5
255.0252	10
256.0511	16
257.036	7
260.1064	3
270.0457	1
270.9092	2
270.9715	3
271.0572	999
271.1818	3
271.2986	2
271.4077	2
271.5454	2
271.6909	2
271.7884	3
271.9301	2
272.0601	122
272.9451	2
273.0597	9
277.0921	3
284.0272	229
284.3223	1
284.4765	1
285.0299	34
286.029	4
298.833	1
298.9011	3
299.0511	792
299.2965	2
299.392	4
