Mass spectrum: alpha-D-Talose; ESI-TOF; MS2; CE: 6.0000000;  [M+H]+
Name: alpha-D-Talose
Class: NA
Formula: C6H12O6
Exact mass: 180.06339
SMILES: O[C@H]1[C@@H](O)[C@H](O[C@H](O)[C@H]1O)CO
InChI: InChI=1S/C6H12O6/c7-1-2-3(8)4(9)5(10)6(11)12-2/h2-11H,1H2/t2-,3+,4+,5+,6+/m1/s1
Instrument: waters xevo g2 TOF
Instrument type: ESI-TOF
Ms type: MS2
Ion mode: POSITIVE
Ionization: ESI
Collision energy: 6.0000000
Column name: Acquity CSHC18
Retention time: 0.537 min
Base peak: 181.07139
Precursor m/z: 181.07139
Precursor type: [M+H]+
m/z	relative intensity
155.0298	48
174.9691	1
200.0451	854
200.5474	119
201.0467	32
203.0529	999
204.0557	74
208.0317	37
209.0312	39
219.0185	27
234.9912	63
279.9883	134
280.9947	26
294.0057	212
324.0154	36
414.0472	85
415.0514	24
