Mass spectrum: C12 Carnitine; ESI-TOF; MS2; CE: 0.6458333;  [M+H]+
Name: C12 Carnitine
Class: NA
Formula: C19H37NO4
Exact mass: 343.27226
SMILES: [H]C([H])([H])C([H])([H])C([H])([H])C([H])([H])C([H])([H])C([H])([H])C([H])([H])C([H])([H])C([H])([H])C([H])([H])C([H])([H])C(=O)OC([H])(C([H])([H])C(=O)[O-])C([H])([H])[N+](C([H])([H])[H])(C([H])([H])[H])C([H])([H])[H]
InChI: InChI=1S/C19H37NO4/c1-5-6-7-8-9-10-11-12-13-14-19(23)24-17(15-18(21)22)16-20(2,3)4/h17H,5-16H2,1-4H3
Instrument: waters xevo g2 TOF
Instrument type: ESI-TOF
Ms type: MS2
Ion mode: POSITIVE
Ionization: ESI
Collision energy: 0.6458333
Column name: Acquity CSHC18
Retention time: 3.863 min
Base peak: 344.28026
Precursor m/z: 344.28026
Precursor type: [M+H]+
m/z	relative intensity
60.0823	12
71.0868	3
81.0709	5
83.0867	3
85.0297	999
85.103	5
86.0331	48
87.0346	5
89.0603	1
95.0866	20
97.102	2
109.1019	18
123.1176	3
129.0786	1
144.1028	51
145.1051	4
165.1643	3
183.1742	70
184.1784	6
201.1852	8
285.2069	105
286.2104	19
287.2121	1
307.1881	4
344.2801	454
345.2836	101
346.2862	14
363.253	2
366.2619	16
367.2645	2
371.2399	1
372.2378	1
428.2287	2
534.8914	1
687.5529	1
709.5344	2
771.493	2
789.4768	2
1052.8025	1
1114.7727	1
