Mass spectrum: 8-deoxylactucin 15-oxalate; ESI-QTOF; MS2; CE: 25V ± 15V CES;  [M+H]+
Name: 8-deoxylactucin 15-oxalate
Class: Sesquiterpene lactone
Formula: C17H16O7
Exact mass: 332.0896
SMILES: CC1=C2C(C3C(CC1)C(=C)C(=O)O3)C(=CC2=O)COC(=O)C(=O)O
InChI: InChI=1S/C17H16O7/c1-7-3-4-10-8(2)16(21)24-14(10)13-9(5-11(18)12(7)13)6-23-17(22)15(19)20/h5,10,13-14H,2-4,6H2,1H3,(H,19,20)
Instrument: TripleToF 5600, Sciex
Instrument type: ESI-QTOF
Ms type: MS2
Ion mode: POSITIVE
Ionization: ESI
Collision energy: 25V ± 15V CES
Column name: Acquity CSHC18
Retention time: 5.609 min
Base peak: 333.1017
Precursor m/z: 333.1017
Precursor type: [M+H]+
Precursor intensity: 1249954
m/z	relative intensity
69.031	26
131.0715	50
143.0679	53
145.0826	64
147.0635	66
155.0678	81
157.0819	110
159.0671	112
160.0631	119
161.072	131
165.0786	135
168.0721	140
171.1	147
173.0788	151
174.0822	177
175.0748	177
181.081	188
185.0789	214
189.0807	222
198.0858	245
199.0935	271
200.0977	314
201.0724	393
207.0658	429
210.0883	493
213.073	549
228.0936	689
242.3385	999
