Mass spectrum: Prenylnaringenin; LC-ESI-QTOF; MS2; CE: 33.59;  [2M-H]-
Name: Prenylnaringenin
Class: NA
Formula: C20H20O5
Exact mass: 340.1311
SMILES: CC(=CCC1(CC(=O)C2=C(C=C(C=C2O1)O)O)C3=CC=C(C=C3)O)C
InChI: InChI=1S/C20H20O5/c1-12(2)7-8-20(13-3-5-14(21)6-4-13)11-17(24)19-16(23)9-15(22)10-18(19)25-20/h3-7,9-10,21-23H,8,11H2,1-2H3
Instrument: Bruker MicrOTOF-Q
Instrument type: LC-ESI-QTOF
Ms type: MS2
Ion mode: NEGATIVE
Ionization: ESI
Collision energy: 33.59
Column name: Acquity CSHC18
Retention time: NA
Base peak: 679.2549
Precursor m/z: 679.2549
Precursor type: [2M-H]-
m/z	relative intensity
219.07	790
220.07	123
339.13	999
340.13	712
341.13	103
