Mass spectrum: caftaric acid; LC-ESI-ITFT; MS2; CE: 0.3;  [M-H]-
Name: caftaric acid
Class: hydroxycinnamates
Formula: C13H12O9
Exact mass: 312.0481
SMILES: C1=CC(=C(C=C1C=CC(=O)OC(C(C(=O)O)O)C(=O)O)O)O
InChI: InChI=1S/C13H12O9/c14-7-3-1-6(5-8(7)15)2-4-9(16)22-11(13(20)21)10(17)12(18)19/h1-5,10-11,14-15,17H,(H,18,19)(H,20,21)
Instrument: LTQ-Orbitrap XL hybrid mass spectrometer (Thermo Scientific)
Instrument type: LC-ESI-ITFT
Ms type: MS2
Ion mode: NEGATIVE
Ionization: ESI
Collision energy: 0.3
Column name: Acquity CSHC18
Retention time: 5.161 min
Base peak: 311.0409
Precursor m/z: 311.0409
Precursor type: [M-H]-
Precursor intensity: 9492788
m/z	relative intensity
83.7408	7
87.1809	9
89.5247	7
89.7235	7
109.8333	6
110.134	7
124.2826	6
125.0988	6
127.1987	6
135.0455	26
144.3562	6
149.0094	999
149.5383	7
149.864	5
160.1554	5
179.0351	578
196.1547	10
196.1605	24
196.2412	7
267.0509	17
287.2917	14
287.2988	24
287.3115	33
