Mass spectrum: 3-AMINO-5-HYDROXYBENZOATE; LC-ESI-QTOF; MS2; CE: 40;  [M-H]-
Name: 3-AMINO-5-HYDROXYBENZOATE
Class: NA
Formula: C7H7NO3
Exact mass: 153.04259
SMILES: C1=C(C=C(C=C1N)O)C(=O)O
InChI: InChI=1S/C7H7NO3/c8-5-1-4(7(10)11)2-6(9)3-5/h1-3,9H,8H2,(H,10,11)
Instrument: Agilent 6530Â Q-TOF LC/MS
Instrument type: LC-ESI-QTOF
Ms type: MS2
Ion mode: NEGATIVE
Ionization: ESI
Collision energy: 40
Column name: NA
Retention time: 0.200 min
Base peak: 152.03859
Precursor m/z: 152.03859
Precursor type: [M-H]-
Precursor intensity: 177
m/z	relative intensity
63.9684	748
107.5534	821
113.2194	999
