Mass spectrum: alpha-Linolenoyl ethanolamide; LC-ESI-ITFT; MS2; CE: 60;  [M+H]+
Name: alpha-Linolenoyl ethanolamide
Class: Organic nitrogen compounds; Organonitrogen compounds; Amines
Formula: C20H35NO2
Exact mass: 321.26678
SMILES: CC\C=C/C\C=C/C\C=C/CCCCCCCC(=O)NCCO
InChI: InChI=1S/C20H35NO2/c1-2-3-4-5-6-7-8-9-10-11-12-13-14-15-16-17-20(23)21-18-19-22/h3-4,6-7,9-10,22H,2,5,8,11-19H2,1H3,(H,21,23)/b4-3-,7-6-,10-9-
Instrument: Thermo Scientific Q-Exactive Focus
Instrument type: LC-ESI-ITFT
Ms type: MS2
Ion mode: POSITIVE
Ionization: ESI
Collision energy: 60
Column name: Acquity CSHC18
Retention time: 2.014 min
Base peak: 322.27405
Precursor m/z: 322.27405
Precursor type: [M+H]+
m/z	relative intensity
53.0391	213
55.0548	438
62.0605	525
67.0547	999
79.0546	820
81.0702	446
91.0545	575
93.0702	249
95.0494	300
95.0858	125
