Mass spectrum: 1-myristoyl-2-hydroxy-sn-glycero-3-phosphoethanolamine; ESI-TOF; MS2; CE: 0.6458333;  [M+H]+
Name: 1-myristoyl-2-hydroxy-sn-glycero-3-phosphoethanolamine
Class: NA
Formula: C19H40NO7P
Exact mass: 425.25424
SMILES: [H]OC([H])(C([H])([H])OC(=O)C([H])([H])C([H])([H])C([H])([H])C([H])([H])C([H])([H])C([H])([H])C([H])([H])C([H])([H])C([H])([H])C([H])([H])C([H])([H])C([H])([H])C([H])([H])[H])C([H])([H])OP(=O)([O-])OC([H])([H])C([H])([H])[N+]([H])([H])[H]
InChI: InChI=1S/C19H40NO7P/c1-2-3-4-5-6-7-8-9-10-11-12-13-19(22)25-16-18(21)17-27-28(23,24)26-15-14-20/h18,21H,2-17,20H2,1H3,(H,23,24)
Instrument: waters xevo g2 TOF
Instrument type: ESI-TOF
Ms type: MS2
Ion mode: POSITIVE
Ionization: ESI
Collision energy: 0.6458333
Column name: Acquity CSHC18
Retention time: 5.335 min
Base peak: 426.26224
Precursor m/z: 426.26224
Precursor type: [M+H]+
m/z	relative intensity
62.0616	13
71.0867	21
81.0706	21
85.1019	28
95.0865	46
109.1019	27
111.1167	10
120.9662	10
123.1176	15
136.9315	72
155.011	75
174.9466	12
192.9576	139
211.2062	34
216.0655	9
254.2487	85
255.2522	14
267.1635	16
271.9832	11
285.2432	999
286.2467	185
347.1288	23
365.2085	47
366.2114	8
387.1916	25
403.1553	339
404.1595	37
405.2011	146
406.2048	18
408.2518	145
409.2547	28
426.262	420
427.265	94
