Mass spectrum: Carnosic acid quinone; ESI-QTOF; MS2; CE: -55V;  [M-H]-
Name: Carnosic acid quinone
Class: phenolic diterpene
Formula: C20H26O4
Exact mass: 330.1831
SMILES: CC(C)C(C(C1=O)=O)=CC2=C1C3(C(O)=O)C(CC2)C(C)(C)CCC3
InChI: InChI=1S/C20H26O4/c1-11(2)13-10-12-6-7-14-19(3,4)8-5-9-20(14,18(23)24)15(12)17(22)16(13)21/h10-11,14H,5-9H2,1-4H3,(H,23,24)
Instrument: TripleToF 5600, Sciex
Instrument type: ESI-QTOF
Ms type: MS2
Ion mode: NEGATIVE
Ionization: ESI
Collision energy: -55V
Column name: Acquity CSHC18
Retention time: 12.687 min
Base peak: 329.1826
Precursor m/z: 329.1826
Precursor type: [M-H]-
Precursor intensity: 29068.19
m/z	relative intensity
186.0716	15
201.0915	135
201.1035	135
214.1005	18
269.1681	21
285.1943	999
286.1917	244
287.2075	76
329.1799	301
330.1923	88
331.196	57
