Mass spectrum: Cheilanthifoline; ESI-QTOF; MS2; CE: 1, 35, 60;  [M+H]+
Name: Cheilanthifoline
Class: Benzylisoquinoline (subclass:Benzophenanthridine) alkaloid
Formula: C19H19NO4
Exact mass: 325.1314
SMILES: COC1=C(C=C2C3CC4=C(CN3CCC2=C1)C5=C(C=C4)OCO5)O
InChI: InChI=1S/C19H19NO4/c1-22-18-7-12-4-5-20-9-14-11(2-3-17-19(14)24-10-23-17)6-15(20)13(12)8-16(18)21/h2-3,7-8,15,21H,4-6,9-10H2,1H3
Instrument: AB Sciex TripleToF 5500
Instrument type: ESI-QTOF
Ms type: MS2
Ion mode: POSITIVE
Ionization: ESI
Collision energy: 1, 35, 60
Column name: Acquity CSHC18
Retention time: 5.230 min
Base peak: 326.1360
Precursor m/z: 326.1360
Precursor type: [M+H]+
Precursor intensity: 959840.3
m/z	relative intensity
136.0628	58
152.0698	58
161.0432	89
164.059	172
180.0848	197
201.0628	293
266.1032	327
294.0956	393
325.1095	999
