Mass spectrum: 6-prenyl naringenin; LC-ESI-ITFT; MS2; CE: 0.3;  [M-H]-
Name: 6-prenyl naringenin
Class: flavanones
Formula: C20H20O5
Exact mass: 340.1311
SMILES: CC(=CCC1=C(C2=C(C=C1O)OC(CC2=O)C3=CC=C(C=C3)O)O)C
InChI: InChI=1S/C20H20O5/c1-11(2)3-8-14-15(22)9-18-19(20(14)24)16(23)10-17(25-18)12-4-6-13(21)7-5-12/h3-7,9,17,21-22,24H,8,10H2,1-2H3
Instrument: LTQ-Orbitrap XL hybrid mass spectrometer (Thermo Scientific)
Instrument type: LC-ESI-ITFT
Ms type: MS2
Ion mode: NEGATIVE
Ionization: ESI
Collision energy: 0.3
Column name: Acquity CSHC18
Retention time: 13.176 min
Base peak: 339.1233
Precursor m/z: 339.1233
Precursor type: [M-H]-
Precursor intensity: 92175280
m/z	relative intensity
81.494	2
87.9144	2
88.0382	2
103.1477	2
103.1547	2
106.434	2
119.0506	26
119.2745	2
119.4944	2
133.0662	19
134.1962	2
151.0766	13
161.1687	1
161.175	1
161.18	4
167.7651	2
175.0765	41
176.0115	15
177.0191	3
193.087	25
196.2121	7
196.5467	1
217.6618	6
218.1282	3
218.3158	2
219.0426	3
219.0451	4
219.0472	3
219.0499	5
219.0524	5
219.0547	5
219.0574	7
219.0661	999
219.0745	4
219.077	6
219.0787	5
219.0818	5
219.0841	4
219.0865	3
219.089	3
219.0915	2
219.099	2
219.8209	2
220.0102	4
220.4844	3
233.0816	69
245.0817	97
286.53	2
286.5415	3
295.1335	15
323.8062	2
339.1231	31
