Mass spectrum: N-Acetylserotonin; LC-ESI-ITFT; MS2; CE: 30;  [M+H]+
Name: N-Acetylserotonin
Class: Organoheterocyclic compounds; Indoles and derivatives; Hydroxyindoles
Formula: C12H14N2O2
Exact mass: 218.10553
SMILES: CC(=O)NCCC1=CNC2=C1C=C(O)C=C2
InChI: InChI=1S/C12H14N2O2/c1-8(15)13-5-4-9-7-14-12-3-2-10(16)6-11(9)12/h2-3,6-7,14,16H,4-5H2,1H3,(H,13,15)
Instrument: Thermo Scientific Q-Exactive Focus
Instrument type: LC-ESI-ITFT
Ms type: MS2
Ion mode: POSITIVE
Ionization: ESI
Collision energy: 30
Column name: Acquity CSHC18
Retention time: 0.917 min
Base peak: 219.11279
Precursor m/z: 219.11279
Precursor type: [M+H]+
m/z	relative intensity
67.0421	40
105.0701	103
115.0543	407
117.0574	233
132.0807	371
133.0647	92
142.065	80
143.0729	55
159.0677	93
160.0756	999
