Mass spectrum: S-CARBOXYMETHYLCYSTEINE; LC-ESI-QFT; MS2; CE: 30eV;  [M+H]+
Name: S-CARBOXYMETHYLCYSTEINE
Class: NA
Formula: C5H9NO4S
Exact mass: 179.02523
SMILES: NC(CSCC(O)=O)C(O)=O
InChI: InChI=1S/C5H9NO4S/c6-3(5(9)10)1-11-2-4(7)8/h3H,1-2,6H2,(H,7,8)(H,9,10)
Instrument: Q-Exactive Orbitrap, Thermo Scientfic; Ultimate 3000 HPLC, Thermo Scientfic
Instrument type: LC-ESI-QFT
Ms type: MS2
Ion mode: POSITIVE
Ionization: ESI
Collision energy: 30eV
Column name: Acquity CSHC18
Retention time: 0.558 min
Base peak: 180.0325
Precursor m/z: 180.0325
Precursor type: [M+H]+
Precursor intensity: 183
m/z	relative intensity
54.3238	1
58.9958	7
59.6706	1
60.8714	1
61.0114	89
62.9907	1
70.0295	1
73.0114	7
73.029	1
73.708	1
74.0066	24
78.5663	1
86.9906	11
88.0222	57
88.04	11
89.0062	737
90.0056	1
90.0096	12
102.9855	25
105.0011	18
107.0168	2
111.9689	8
114.9714	1
116.017	119
117.001	182
117.0206	1
118.0043	2
120.012	1
129.9794	8
130.7649	1
134.0274	350
135.0114	258
135.0308	7
136.0151	3
139.9637	3
144.9958	9
153.0222	3
153.6075	1
153.9804	1
155.9755	1
157.974	5
161.4346	1
162.0223	68
163.0063	999
164.0101	27
174.8886	1
178.6236	1
179.0642	2
180.0329	214
181.0365	6
