Mass spectrum: N,N-DIMETHYLARGININE; LC-ESI-QFT; MS2; CE: 30eV;  [M+H]+
Name: N,N-DIMETHYLARGININE
Class: NA
Formula: C8H18N4O2
Exact mass: 202.14298
SMILES: CN(C)C(=NCCCC(C(=O)O)N)N
InChI: InChI=1S/C8H18N4O2/c1-12(2)8(10)11-5-3-4-6(9)7(13)14/h6H,3-5,9H2,1-2H3,(H2,10,11)(H,13,14)
Instrument: Q-Exactive Orbitrap, Thermo Scientfic; Ultimate 3000 HPLC, Thermo Scientfic
Instrument type: LC-ESI-QFT
Ms type: MS2
Ion mode: POSITIVE
Ionization: ESI
Collision energy: 30eV
Column name: Acquity CSHC18
Retention time: 0.632 min
Base peak: 203.1503
Precursor m/z: 203.1503
Precursor type: [M+H]+
Precursor intensity: 192
m/z	relative intensity
50.1933	3
51.3017	3
55.8358	3
58.9916	4
70.0659	531
71.0612	97
71.0693	11
72.0816	70
78.3933	4
81.8497	4
85.8471	5
88.0877	827
88.8979	4
98.0607	7
112.0877	20
113.0714	7
115.0872	66
116.0712	999
117.0746	33
117.9353	4
123.3044	5
126.0558	7
133.0976	46
138.0555	47
138.2571	4
138.9759	4
141.929	4
144.0661	9
152.2075	4
154.0863	4
158.0929	232
158.1293	631
159.0964	6
159.1259	5
159.1326	20
159.161	6
168.0662	8
183.7725	4
185.1396	7
186.1236	5
203.8833	28
204.1548	171
