Mass spectrum: Flavone; ESI-TOF; MS2; CE: 6.0000000;  [M+H]+
Name: Flavone
Class: NA
Formula: C15H10O2
Exact mass: 222.06808
SMILES: O=C1C=C(OC2=CC=CC=C12)C1=CC=CC=C1
InChI: InChI=1S/C15H10O2/c16-13-10-15(11-6-2-1-3-7-11)17-14-9-5-4-8-12(13)14/h1-10H
Instrument: waters xevo g2 TOF
Instrument type: ESI-TOF
Ms type: MS2
Ion mode: POSITIVE
Ionization: ESI
Collision energy: 6.0000000
Column name: Acquity CSHC18
Retention time: 3.690 min
Base peak: 223.07608
Precursor m/z: 223.07608
Precursor type: [M+H]+
m/z	relative intensity
125.9866	4
147.066	1
167.0713	13
172.9782	1
184.9998	2
195.0812	2
224.4877	362
228.9604	2
242.3104	1
245.2122	999
246.1225	232
247.0628	43
250.2509	2
251.0541	1
258.0633	1
261.078	3
262.5638	4
282.105	3
307.0284	3
308.0232	2
323.0007	6
324.0558	1
324.604	1
325.0042	2
345.039	2
345.8926	1
353.0845	25
353.543	11
354.0535	8
355.0564	8
355.5914	3
356.0926	19
356.5945	9
357.0964	2
360.0718	8
360.923	31
361.5718	64
362.0717	32
362.8678	19
363.5703	5
364.0364	1
365.1184	1
368.5738	1
369.091	26
369.574	68
370.0743	34
370.5747	10
371.0731	2
375.5814	4
376.0847	2
376.5795	127
377.0819	67
377.5824	7
378.0844	4
382.5725	2
383.0718	2
383.5685	69
384.0707	35
384.5726	10
385.074	2
408.5606	1
419.0881	2
435.1357	9
435.6379	5
436.1396	1
450.1511	3
451.1519	40
452.1548	12
453.1596	1
456.1296	36
456.6303	10
457.1311	16
457.6322	3
464.3476	181
465.1205	158
465.6222	45
466.3879	4
467.1254	204
468.1285	68
471.6063	4
472.1046	25
472.6058	7
473.1044	123
474.1018	39
475.1044	10
475.6037	4
476.1039	2
476.6012	1
509.1131	1
513.1136	1
514.0808	2
514.5826	2
529.0965	10
530.0994	3
531.1041	1
545.0685	6
547.0712	5
548.0791	2
549.0685	2
550.0732	1
562.1045	3
563.1064	1
572.0927	2
575.1525	13
575.6537	12
576.1216	4
577.0906	2
594.0439	1
662.162	1
751.1629	3
768.1525	6
769.1546	2
837.1036	2
