Mass spectrum: H-Leu-Val-OH; LC-ESI-QTOF; MS2; CE: 15.00;  [M-H]-
Name: H-Leu-Val-OH
Class: NA
Formula: C11H22N2O3
Exact mass: 230.1630
SMILES: CC(C)CC(C(=O)NC(C(C)C)C(=O)O)N
InChI: InChI=1S/C11H22N2O3/c1-6(2)5-8(12)10(14)13-9(7(3)4)11(15)16/h6-9H,5,12H2,1-4H3,(H,13,14)(H,15,16)
Instrument: Bruker MicrOTOF-Q
Instrument type: LC-ESI-QTOF
Ms type: MS2
Ion mode: NEGATIVE
Ionization: ESI
Collision energy: 15.00
Column name: Acquity CSHC18
Retention time: NA
Base peak: 229.1558
Precursor m/z: 229.1558
Precursor type: [M-H]-
m/z	relative intensity
45.446	52
48.295	66
49.2067	54
50.23	68
53.525	51
54.49	51
55.71	55
58.445	89
59.12	44
60.09	46
61.64	38
62.185	44
63.195	49
64.64	42
67.26	72
69.52	42
72.07	38
72.59	72
73.49	46
74.08	46
74.88	81
76.42	59
77.2	46
77.71	68
78.96	46
81.74	76
82.5367	55
84.09	38
86.94	64
88.235	49
93.32	44
94.12	59
94.77	59
95.375	59
96.92	49
99.88	51
100.71	46
104.63	72
105.84	64
106.46	59
108.25	51
110.62	59
112.81	38
113.75	59
114.37	64
115.11	59
116.2456	538
117.97	34
124.18	52
125.46	59
126.955	168
129.1	593
129.57	89
130.165	46
131.2	55
135.02	34
138.97	46
141.65	54
143.04	34
148.99	85
149.78	72
152.285	68
156.59	46
157.32	55
159.97	76
164.74	51
167.66	55
168.105	298
169.14	55
171.81	55
173.37	34
175.7	55
176.84	38
178.435	42
180.18	55
181.33	51
183.15	55
185.024	875
186.17	999
189.88	46
193.08	55
199.3	59
201.3	68
205.81	51
208.5	72
209.57	72
210.17	51
211.14	42
215.26	42
216.8	46
221.04	59
223.98	55
227.69	46
229.06	514
230.105	155
238.68	34
271.89	38
300.92	34
377.06	34
481.93	38
486.77	46
507.49	55
521.41	46
544.95	34
551.42	34
552.55	38
665.84	46
746.4	34
794.05	34
821.82	55
836.53	42
942.89	46
984.08	38
