Mass spectrum: 4-Hydroxyphenylpyruvic acid; LC-ESI-QTOF; MS2; CE: -10, -35, -60V;  [M-H]-
Name: 4-Hydroxyphenylpyruvic acid
Class: NA
Formula: C9H8O4
Exact mass: 180.0423
SMILES: C1=CC(=CC=C1CC(=O)C(=O)O)O
InChI: InChI=1S/C9H8O4/c10-7-3-1-6(2-4-7)5-8(11)9(12)13/h1-4,10H,5H2,(H,12,13)
Instrument: TripleToF 5600; Sciex
Instrument type: LC-ESI-QTOF
Ms type: MS2
Ion mode: NEGATIVE
Ionization: ESI
Collision energy: -10, -35, -60V
Column name: Acquity CSHC18
Retention time: 9.076 min
Base peak: 179.0372
Precursor m/z: 179.0372
Precursor type: [M-H]-
Precursor intensity: 40959.94
m/z	relative intensity
107.0483	112
179.0369	999
