Mass spectrum: N-Formyl-L-methionine; ESI-TOF; MS2; CE: 6.0000000;  [M+H]+
Name: N-Formyl-L-methionine
Class: NA
Formula: C6H11NO3S
Exact mass: 177.04596
SMILES: CSCCC(NC=O)C(O)=O
InChI: InChI=1S/C6H11NO3S/c1-11-3-2-5(6(9)10)7-4-8/h4-5H,2-3H2,1H3,(H,7,8)(H,9,10)
Instrument: waters xevo g2 TOF
Instrument type: ESI-TOF
Ms type: MS2
Ion mode: POSITIVE
Ionization: ESI
Collision energy: 6.0000000
Column name: Acquity CSHC18
Retention time: 1.803 min
Base peak: 178.05396
Precursor m/z: 178.05396
Precursor type: [M+H]+
m/z	relative intensity
61.0114	1
84.045	20
102.055	21
104.0529	242
106.0496	7
113.964	33
125.5291	23
130.0502	999
131.0535	51
133.032	425
137.988	417
144.066	6
150.0588	760
151.0615	45
152.0553	36
160.0435	49
172.9777	217
178.0534	66
