Mass spectrum: Pipecolic acid; LC-ESI-ITFT; MS2; CE: 100;  [M+H]+
Name: Pipecolic acid
Class: Organic acids and derivatives; Carboxylic acids and derivatives; Amino acids, peptides, and analogues
Formula: C6H11NO2
Exact mass: 129.07898
SMILES: OC(=O)C1CCCCN1
InChI: InChI=1S/C6H11NO2/c8-6(9)5-3-1-2-4-7-5/h5,7H,1-4H2,(H,8,9)
Instrument: Thermo Scientific Q-Exactive Focus
Instrument type: LC-ESI-ITFT
Ms type: MS2
Ion mode: POSITIVE
Ionization: ESI
Collision energy: 100
Column name: Acquity CSHC18
Retention time: 2.305 min
Base peak: 130.08626
Precursor m/z: 130.08626
Precursor type: [M+H]+
m/z	relative intensity
53.0028	999
60.0656	324
77.8756	352
78.6871	349
83.6326	400
91.3251	340
100.0831	352
108.9106	335
121.5186	328
133.6213	324
