Mass spectrum: Argininosuccinic acid; LC-ESI-QTOF; MS2; CE: 15 / 50;  [M-H]-
Name: Argininosuccinic acid
Class: NA
Formula: C10H18N4O6
Exact mass: 290.1226
SMILES: N[C@@H](CCCNC(=N)N[C@@H](CC(O)=O)C(O)=O)C(O)=O
InChI: InChI=1S/C10H18N4O6/c11-5(8(17)18)2-1-3-13-10(12)14-6(9(19)20)4-7(15)16/h5-6H,1-4,11H2,(H,15,16)(H,17,18)(H,19,20)(H3,12,13,14)/t5-,6-/m0/s1
Instrument: impact II
Instrument type: LC-ESI-QTOF
Ms type: MS2
Ion mode: NEGATIVE
Ionization: ESI
Collision energy: 15 / 50
Column name: Acquity CSHC18
Retention time: 0.851 min
Base peak: 289.1157
Precursor m/z: 289.1157
Precursor type: [M-H]-
m/z	relative intensity
88.0405	137
115.0036	209
131.0824	999
132.0303	882
156.0775	315
173.1043	564
185.0925	120
210.0886	101
211.0723	261
227.115	132
229.0826	169
271.1051	199
289.0872	169
