Mass spectrum: cis-Aconitic acid; LC-ESI-ITFT; MS2; CE: 60;  [M-H]-
Name: cis-Aconitic acid
Class: Organic acids and derivatives; Carboxylic acids and derivatives; Tricarboxylic acids and derivatives
Formula: C6H6O6
Exact mass: 174.01644
SMILES: OC(=O)C\C(=C\C(O)=O)C(O)=O
InChI: InChI=1S/C6H6O6/c7-4(8)1-3(6(11)12)2-5(9)10/h1H,2H2,(H,7,8)(H,9,10)(H,11,12)/b3-1-
Instrument: Thermo Scientific Q-Exactive Focus
Instrument type: LC-ESI-ITFT
Ms type: MS2
Ion mode: NEGATIVE
Ionization: ESI
Collision energy: 60
Column name: Acquity CSHC18
Retention time: 1.761 min
Base peak: 173.00916
Precursor m/z: 173.00916
Precursor type: [M-H]-
m/z	relative intensity
60.9306	894
90.06	768
92.8488	999
113.752	814
127.4052	774
144.6876	789
152.8291	799
167.5516	795
176.0099	866
182.4897	825
