Mass spectrum: Daidzein; ESI-TOF; MS2; CE: 0.6458333;  [M+H]+
Name: Daidzein
Class: NA
Formula: C15H10O4
Exact mass: 254.05791
SMILES: OC1=CC=C(C=C1)C1=COC2=C(C=CC(O)=C2)C1=O
InChI: InChI=1S/C15H10O4/c16-10-3-1-9(2-4-10)13-8-19-14-7-11(17)5-6-12(14)15(13)18/h1-8,16-17H
Instrument: waters xevo g2 TOF
Instrument type: ESI-TOF
Ms type: MS2
Ion mode: POSITIVE
Ionization: ESI
Collision energy: 0.6458333
Column name: Acquity CSHC18
Retention time: 2.684 min
Base peak: 255.06591
Precursor m/z: 255.06591
Precursor type: [M+H]+
m/z	relative intensity
55.0194	3
65.04	2
68.9982	8
81.0345	6
89.0397	1
91.0551	114
92.0583	8
93.0343	5
104.9918	7
106.041	4
107.0493	2
109.0291	10
115.0548	12
119.0499	30
121.0292	5
122.032	2
127.0547	11
128.0627	61
129.081	84
130.0734	4
131.05	28
132.053	1
133.0292	25
134.0359	1
137.024	81
138.0276	56
139.034	4
141.0707	8
142.0754	2
143.0861	49
144.0897	4
145.0291	52
146.0328	7
147.011	4
149.0137	9
150.0271	6
152.0625	15
153.0704	202
154.074	1
155.0961	9
156.0572	2
157.0418	42
158.038	3
159.0441	2
161.0253	1
163.0396	1
165.0702	29
166.0746	4
168.0566	3
169.0649	20
170.0715	3
171.081	117
172.0843	15
175.0387	7
181.0654	425
182.0698	3
183.0761	11
184.0525	23
185.0595	34
186.0628	4
187.0756	2
193.0511	8
197.0606	15
198.0668	30
199.0758	999
200.0794	150
201.0964	15
209.0603	66
210.0665	29
211.0707	36
212.0473	12
213.0542	4
225.0548	8
226.0629	17
227.0707	438
229.076	8
237.0551	12
238.0583	35
244.2073	1
253.0495	5
255.6679	548
