Mass spectrum: Phenylacetylglycine; ESI-TOF; MS2; CE: 0.6458333;  [M+H]+
Name: Phenylacetylglycine
Class: NA
Formula: C10H11NO3
Exact mass: 193.07389
SMILES: OC(=O)CNC(=O)CC1=CC=CC=C1
InChI: InChI=1S/C10H11NO3/c12-9(11-7-10(13)14)6-8-4-2-1-3-5-8/h1-5H,6-7H2,(H,11,12)(H,13,14)
Instrument: waters xevo g2 TOF
Instrument type: ESI-TOF
Ms type: MS2
Ion mode: POSITIVE
Ionization: ESI
Collision energy: 0.6458333
Column name: Acquity CSHC18
Retention time: 2.111 min
Base peak: 194.08189
Precursor m/z: 194.08189
Precursor type: [M+H]+
m/z	relative intensity
76.0403	114
82.0483	11
91.055	999
95.9733	1
96.9844	20
113.0603	35
113.9644	6
132.0814	19
137.0326	9
146.0387	1
148.0476	18
151.0038	2
157.0759	1
161.0279	5
163.9929	8
164.9836	1
175.0094	6
176.0469	2
178.0171	40
180.012	6
189.0412	15
191.0033	115
192.0081	21
200.0895	8
203.0037	102
204.0103	51
205.0188	105
206.0362	23
209.0146	6
212.0167	2
214.019	5
215.0041	1
215.9377	11
219.0333	7
220.0302	4
221.0141	32
224.0229	1
231.0565	1
232.0291	299
233.0334	51
235.0407	5
236.0251	4
238.0455	19
245.0362	9
249.0099	43
250.0039	39
251.0076	8
251.9987	13
253.0001	2
254.006	1
259.1142	2
267.0718	3
270.991	8
273.0482	24
274.0892	1
277.0272	4
279.0321	4
281.0482	16
282.0491	1
283.0413	2
296.072	13
298.0872	11
300.0591	2
303.055	2
307.0603	18
309.0349	6
314.0542	3
321.1455	21
322.1455	6
323.0808	27
324.1374	11
330.0857	6
336.0637	6
337.0944	32
338.0711	124
339.0727	28
340.0768	3
348.0922	13
349.0948	4
351.0851	20
352.0882	54
353.0944	123
354.0979	29
355.0831	18
356.0902	6
367.1243	25
368.0812	56
369.0851	13
381.1109	8
382.1131	2
395.0724	3
396.0778	4
399.0848	14
400.0866	3
401.034	2
409.1251	7
411.1133	40
412.1171	5
418.059	12
419.0818	3
420.1111	9
422.11	3
425.1018	188
426.1052	46
427.1054	4
429.0975	2
438.1542	2
440.0669	54
441.0714	19
443.0743	3
447.0839	3
448.0999	5
460.0469	5
463.0551	15
479.022	6
480.087	2
485.0365	16
491.0041	1
493.9959	1
495.0572	2
496.2112	3
499.9986	3
592.0418	1
627.1325	4
648.1525	5
655.1211	11
656.123	10
657.1276	3
658.1155	2
671.0935	5
672.0927	9
673.1001	4
675.1002	2
677.1039	20
679.1017	1
688.0681	19
689.0809	5
690.0748	3
870.1757	10
871.1794	7
880.1283	2
887.1455	1
893.1587	2
