Mass spectrum: 3,4-Dimethoxybenzoic acid; LC-ESI-QTOF; MS2; CE: 15.00;  [M-H]-
Name: 3,4-Dimethoxybenzoic acid
Class: NA
Formula: C9H10O4
Exact mass: 182.0579
SMILES: COC1=C(C=C(C=C1)C(=O)O)OC
InChI: InChI=1S/C9H10O4/c1-12-7-4-3-6(9(10)11)5-8(7)13-2/h3-5H,1-2H3,(H,10,11)
Instrument: Bruker MicrOTOF-Q
Instrument type: LC-ESI-QTOF
Ms type: MS2
Ion mode: NEGATIVE
Ionization: ESI
Collision energy: 15.00
Column name: Acquity CSHC18
Retention time: NA
Base peak: 181.0506
Precursor m/z: 181.0506
Precursor type: [M-H]-
m/z	relative intensity
47.4634	70
50.0579	50
53.8681	69
55.4605	64
60.9295	43
64.9926	38
65.643	33
68.6248	69
73.077	89
84.0632	37
85.7287	60
90.0447	40
91.475	53
93.1803	48
93.2391	72
97.7635	77
102.8896	67
103.5439	48
105.925	62
107.0142	999
108.017	149
111.0064	503
112.7829	52
112.976	104
115.4664	45
122.0357	956
123.0158	198
124.0093	42
137.0596	340
138.0298	178
139.0066	102
166.5276	58
192.3389	37
214.9897	37
216.5484	65
229.3774	45
332.2522	58
451.9339	52
534.5943	37
597.5946	47
654.7649	40
809.187	43
874.2662	53
932.9865	45
974.2562	40
