Mass spectrum: TAURINE; LC-ESI-QFT; MS2; CE: 30eV;  [M+H]+
Name: TAURINE
Class: NA
Formula: C2H7NO3S
Exact mass: 125.01466
SMILES: NCCS(O)(=O)=O
InChI: InChI=1S/C2H7NO3S/c3-1-2-7(4,5)6/h1-3H2,(H,4,5,6)
Instrument: Q-Exactive Orbitrap, Thermo Scientfic; Ultimate 3000 HPLC, Thermo Scientfic
Instrument type: LC-ESI-QFT
Ms type: MS2
Ion mode: POSITIVE
Ionization: ESI
Collision energy: 30eV
Column name: Acquity CSHC18
Retention time: 0.561 min
Base peak: 126.0219
Precursor m/z: 126.0219
Precursor type: [M+H]+
Precursor intensity: 195
m/z	relative intensity
51.7636	2
53.9439	2
56.9656	4
59.2608	2
61.1402	2
68.6382	2
72.4055	2
75.0268	38
77.6031	2
84.9381	3
84.9603	88
93.0373	51
96.9962	3
97.0288	4
102.9489	3
102.9708	5
105.7553	3
106.2277	3
108.0119	999
108.9958	38
109.0151	5
126.0735	5
127.0257	21
