Mass spectrum: ALLOTHREONINE; LC-ESI-QTOF; MS2; CE: 10;  [M+H]+
Name: ALLOTHREONINE
Class: NA
Formula: C4H9NO3
Exact mass: 119.05824
SMILES: C[C@H](O)[C@H](N)C(O)=O
InChI: InChI=1S/C4H9NO3/c1-2(6)3(5)4(7)8/h2-3,6H,5H2,1H3,(H,7,8)/t2-,3-/m0/s1
Instrument: Agilent 6530Â Q-TOF LC/MS
Instrument type: LC-ESI-QTOF
Ms type: MS2
Ion mode: POSITIVE
Ionization: ESI
Collision energy: 10
Column name: NA
Retention time: 0.200 min
Base peak: 120.06325
Precursor m/z: 120.06325
Precursor type: [M+H]+
Precursor intensity: 70.5
m/z	relative intensity
45.046	71
46.0283	74
56.0666	107
57.0362	111
58.0601	159
67.0402	223
74.0711	234
84.0567	252
94.061	338
102.0672	495
120.0976	497
121.0762	999
