Mass spectrum: 15?-hydroxycholestene; ESI-TOF; MS2; CE: 0.6458333;  [M+H]+
Name: 15?-hydroxycholestene
Class: NA
Formula: C27H46O2
Exact mass: 402.34978
SMILES: [H]OC3([H])(C2=C1C([H])([H])C([H])([H])C4([H])(C([H])([H])C([H])(O[H])C([H])([H])C([H])([H])C4(C([H])([H])[H])(C1([H])C([H])([H])C([H])([H])C2(C([H])([H])[H])C([H])(C3([H])([H]))C([H])(C([H])([H])[H])C([H])([H])C([H])([H])C([H])([H])C([H])(C([H])([H])[H])C([H])([H])[H])))
InChI: InChI=1S/C27H46O2/c1-17(2)7-6-8-18(3)23-16-24(29)25-21-10-9-19-15-20(28)11-13-26(19,4)22(21)12-14-27(23,25)5/h17-20,22-24,28-29H,6-16H2,1-5H3
Instrument: waters xevo g2 TOF
Instrument type: ESI-TOF
Ms type: MS2
Ion mode: POSITIVE
Ionization: ESI
Collision energy: 0.6458333
Column name: Acquity CSHC18
Retention time: 8.907 min
Base peak: 403.35778
Precursor m/z: 403.35778
Precursor type: [M+H]+
m/z	relative intensity
71.0872	25
81.0712	47
83.0868	38
91.0554	59
93.071	81
95.0868	171
97.1023	76
105.0708	114
107.0864	84
109.102	142
111.1173	26
119.0867	77
121.1021	90
123.1175	33
129.071	24
131.0867	116
133.1022	98
135.1174	42
143.0863	38
145.1021	121
147.1178	280
149.1329	60
159.1171	148
161.1331	133
162.1366	24
163.1486	36
171.1174	100
172.1247	25
173.1327	237
174.1354	23
175.1483	39
185.1337	77
186.1381	21
187.149	252
189.1641	29
193.1949	15
199.1487	82
201.1647	274
202.1676	42
203.1786	26
205.1589	17
213.1655	302
214.1688	53
215.1799	69
219.1753	114
220.1788	9
227.1809	52
231.175	138
232.1777	14
239.1804	41
241.1966	67
253.1962	32
254.2032	153
255.2111	352
256.2143	61
257.2462	34
259.2423	130
260.2465	15
271.2451	28
273.2582	79
274.2626	22
285.2579	124
286.2589	22
299.2757	38
311.2735	48
367.3365	999
368.3395	182
384.3376	33
385.3467	574
386.3504	104
387.3519	20
