Mass spectrum: Metalaxyl; LC-ESI-QTOF; MS2; CE: 20-40eV;  [M+H]+
Name: Metalaxyl
Class: Fongicide
Formula: C15H21NO4
Exact mass: 279.1471
SMILES: CC=1C=CC=C(C)C1N(C(C)C(=O)OC)C(COC)=O
InChI: InChI=1S/C15H21NO4/c1-10-7-6-8-11(2)14(10)16(13(17)9-19-4)12(3)15(18)20-5/h6-8,12H,9H2,1-5H3
Instrument: Impact II, Bruker; Dionex 3000, Thermo Scientific
Instrument type: LC-ESI-QTOF
Ms type: MS2
Ion mode: POSITIVE
Ionization: ESI
Collision energy: 20-40eV
Column name: Acquity CSHC18
Retention time: 12.120 min
Base peak: 280.1539
Precursor m/z: 280.1539
Precursor type: [M+H]+
Precursor intensity: 5793
m/z	relative intensity
103.0532	40
105.0664	70
108.0886	32
117.0554	28
132.0808	56
133.0871	50
134.0949	96
135.067	29
144.0789	31
145.0882	50
146.0953	31
148.1109	120
149.0241	64
156.0849	33
160.1122	309
165.1155	59
192.1379	999
193.1412	62
220.1328	491
221.1347	45
