Mass spectrum: RETINOATE; LC-ESI-QFT; MS2; CE: 30eV;  [M-H]-
Name: RETINOATE
Class: NA
Formula: C20H28O2
Exact mass: 300.20893
SMILES: C\C(\C=C\C1=C(C)CCCC1(C)C)=C/C=C/C(/C)=C/C(O)=O
InChI: InChI=1S/C20H28O2/c1-15(8-6-9-16(2)14-19(21)22)11-12-18-17(3)10-7-13-20(18,4)5/h6,8-9,11-12,14H,7,10,13H2,1-5H3,(H,21,22)/b9-6+,12-11+,15-8+,16-14+
Instrument: Q-Exactive Orbitrap, Thermo Scientfic; Ultimate 3000 HPLC, Thermo Scientfic
Instrument type: LC-ESI-QFT
Ms type: MS2
Ion mode: NEGATIVE
Ionization: ESI
Collision energy: 30eV
Column name: Acquity CSHC18
Retention time: 12.370 min
Base peak: 299.2017
Precursor m/z: 299.2017
Precursor type: [M-H]-
Precursor intensity: 170
m/z	relative intensity
51.1023	13
52.8322	13
53.3565	13
59.0122	18
62.0099	12
69.8315	15
70.9408	14
73.6657	15
75.8766	15
79.3251	14
82.2719	17
94.1127	17
98.1191	21
112.238	14
113.4786	18
115.917	18
130.0314	15
141.9462	15
170.0387	16
170.6956	16
202.619	16
215.6192	18
220.9655	16
242.0458	16
251.7164	17
299.2018	70
299.2592	999
300.2624	64
