Mass spectrum: 5-METHYLCYTOSINE; LC-ESI-QTOF; MS2; CE: 40;  [M+H]+
Name: 5-METHYLCYTOSINE
Class: NA
Formula: C5H7N3O
Exact mass: 125.0589
SMILES: CC1=C(N)NC(=O)N=C1
InChI: InChI=1S/C5H7N3O/c1-3-2-7-5(9)8-4(3)6/h2H,1H3,(H3,6,7,8,9)
Instrument: Agilent 6530Â Q-TOF LC/MS
Instrument type: LC-ESI-QTOF
Ms type: MS2
Ion mode: POSITIVE
Ionization: ESI
Collision energy: 40
Column name: NA
Retention time: 0.200 min
Base peak: 126.06684
Precursor m/z: 126.06684
Precursor type: [M+H]+
Precursor intensity: 15.5
m/z	relative intensity
40.9703	272
44.0148	58
54.0344	999
56.0502	320
56.9642	62
69.0079	80
79.025	55
81.0469	171
108.0563	81
