Mass spectrum: D-Gluconic acid; LC-ESI-QTOF; MS2; CE: 15;  [M-H]-
Name: D-Gluconic acid
Class: NA
Formula: C6H12O7
Exact mass: 196.0583
SMILES: C(C(C(C(C(C(=O)O)O)O)O)O)O
InChI: InChI=1S/C6H12O7/c7-1-2(8)3(9)4(10)5(11)6(12)13/h2-5,7-11H,1H2,(H,12,13)
Instrument: Bruker MicrOTOF-Q
Instrument type: LC-ESI-QTOF
Ms type: MS2
Ion mode: NEGATIVE
Ionization: ESI
Collision energy: 15
Column name: Acquity CSHC18
Retention time: NA
Base peak: 195.0510
Precursor m/z: 195.0510
Precursor type: [M-H]-
m/z	relative intensity
44.8846	130
54.0894	195
64.0855	215
67.161	208
99.0079	195
100.0188	130
100.7767	169
101.0312	163
108.3185	208
115.0425	248
117.0209	339
118.2213	163
129.0136	999
129.9442	267
159.0247	208
169.348	215
175.0763	222
177.0424	208
182.4552	143
182.8262	208
194.7559	235
195.0377	515
266.3306	228
269.8379	156
286.8223	222
288.6267	143
293.8921	143
314.0682	156
365.8433	156
443.0205	248
444.6265	130
478.8058	208
526.5249	137
765.2625	143
769.2453	163
794.4281	130
894.7807	176
901.3261	137
1002.3785	130
