Mass spectrum: S-ADENOSYLMETHIONINE; LC-ESI-QTOF; MS2; CE: 20;  [M+H]+
Name: S-ADENOSYLMETHIONINE
Class: NA
Formula: C15H22N6O5S
Exact mass: 398.13724
SMILES: C[S+](CC[C@@H](C(=O)[O-])N)C[C@@H]1[C@H]([C@H]([C@@H](O1)N2C=NC3=C(N=CN=C32)N)O)O
InChI: InChI=1S/C15H22N6O5S/c1-27(3-2-7(16)15(24)25)4-8-10(22)11(23)14(26-8)21-6-20-9-12(17)18-5-19-13(9)21/h5-8,10-11,14,22-23H,2-4,16H2,1H3,(H2-,17,18,19,24,25)/t7-,8+,10+,11+,14+,27?/m0/s1
Instrument: Agilent 6530Â Q-TOF LC/MS
Instrument type: LC-ESI-QTOF
Ms type: MS2
Ion mode: POSITIVE
Ionization: ESI
Collision energy: 20
Column name: NA
Retention time: 0.200 min
Base peak: 399.14899
Precursor m/z: 399.14899
Precursor type: [M+H]+
Precursor intensity: 142.5
m/z	relative intensity
41.0393	58
56.0605	71
69.0427	77
74.0536	89
97.0562	117
98.0241	158
102.0796	211
119.027	241
136.0896	386
145.0337	648
250.1392	834
298.1212	999
