Mass spectrum: (3S,5S,8R,9S,10S,13S,14S,16S,17R)-10,13-dimethyl-17-((S)-1-((2R,5R)-5-methyl-3-oxopiperidin-2-yl)ethyl)hexadecahydro-1H-cyclopenta[a]phenanthrene-3,16-diyl diacetate; APCI-ITFT; MS2; CE: 35 CID;  [M+H]+
Name: (3S,5S,8R,9S,10S,13S,14S,16S,17R)-10,13-dimethyl-17-((S)-1-((2R,5R)-5-methyl-3-oxopiperidin-2-yl)ethyl)hexadecahydro-1H-cyclopenta[a]phenanthrene-3,16-diyl diacetate
Class: NA
Formula: C31H49NO5
Exact mass: 515.36107
SMILES: C[C@@]12[C@](CC[C@]3([H])[C@@]([H])2CC[C@@]4(C)[C@@]3([H])C[C@H](OC(C)=O)[C@]4([H])[C@H](C)[C@@H]5C(C[C@@H](C)CN5)=O)([H])C[C@@H](OC(C)=O)CC1
InChI: InChI=1S/C31H49NO5/c1-17-13-26(35)29(32-16-17)18(2)28-27(37-20(4)34)15-25-23-8-7-21-14-22(36-19(3)33)9-11-30(21,5)24(23)10-12-31(25,28)6/h17-18,21-25,27-29,32H,7-16H2,1-6H3/t17-,18+,21+,22+,23-,24+,25+,27+,28+,29-,30+,31+/m1/s1
Instrument: Orbitrap Elite
Instrument type: APCI-ITFT
Ms type: MS2
Ion mode: POSITIVE
Ionization: APCI
Collision energy: 35 CID
Column name: Acquity CSHC18
Retention time: 0.096 min
Base peak: 516.36740
Precursor m/z: 516.36740
Precursor type: [M+H]+
Precursor intensity: 567862900
m/z	relative intensity
253.197	7
313.2172	10
378.3144	9
396.3238	6
438.3342	70
456.2861	6
456.3444	999
458.3602	1
459.3523	1
498.355	49
