Mass spectrum: L-Norleucine; LC-ESI-ITFT; MS2; CE: 30;  [M+H]+
Name: L-Norleucine
Class: Organic acids and derivatives; Carboxylic acids and derivatives; Amino acids, peptides, and analogues
Formula: C6H13NO2
Exact mass: 131.09463
SMILES: CCCC[C@H](N)C(O)=O
InChI: InChI=1S/C6H13NO2/c1-2-3-4-5(7)6(8)9/h5H,2-4,7H2,1H3,(H,8,9)/t5-/m0/s1
Instrument: Thermo Scientific Q-Exactive Focus
Instrument type: LC-ESI-ITFT
Ms type: MS2
Ion mode: POSITIVE
Ionization: ESI
Collision energy: 30
Column name: Acquity CSHC18
Retention time: 0.914 min
Base peak: 132.10191
Precursor m/z: 132.10191
Precursor type: [M+H]+
m/z	relative intensity
55.0547	104
69.0704	999
86.0968	594
93.6951	104
109.4823	106
110.712	107
123.823	102
138.7748	116
145.2619	124
151.5025	104
