Mass spectrum: Triethanolamine; LC-ESI-ITFT; MS2; CE: 10;  [M+H]+
Name: Triethanolamine
Class: Organonitrogen compounds; Amines; Alkanolamines
Formula: C6H15NO3
Exact mass: 149.10519
SMILES: OCCN(CCO)CCO
InChI: InChI=1S/C6H15NO3/c8-4-1-7(2-5-9)3-6-10/h8-10H,1-6H2
Instrument: Thermo Scientific Q-Exactive Focus
Instrument type: LC-ESI-ITFT
Ms type: MS2
Ion mode: POSITIVE
Ionization: ESI
Collision energy: 10
Column name: Acquity CSHC18
Retention time: 0.348 min
Base peak: 150.11247
Precursor m/z: 150.11247
Precursor type: [M+H]+
m/z	relative intensity
70.0656	78
77.2056	3
84.0811	5
88.0761	110
106.0866	18
114.0915	60
132.102	420
136.9955	2
150.1125	999
150.1277	3
