Mass spectrum: H-Ile-Val-OH; LC-ESI-QTOF; MS2; CE: 15.00;  [M-H]-
Name: H-Ile-Val-OH
Class: NA
Formula: C11H22N2O3
Exact mass: 230.1630
SMILES: CCC(C)C(C(=O)NC(C(C)C)C(=O)O)N
InChI: InChI=1S/C11H22N2O3/c1-5-7(4)8(12)10(14)13-9(6(2)3)11(15)16/h6-9H,5,12H2,1-4H3,(H,13,14)(H,15,16)
Instrument: Bruker MicrOTOF-Q
Instrument type: LC-ESI-QTOF
Ms type: MS2
Ion mode: NEGATIVE
Ionization: ESI
Collision energy: 15.00
Column name: Acquity CSHC18
Retention time: NA
Base peak: 229.1558
Precursor m/z: 229.1558
Precursor type: [M-H]-
m/z	relative intensity
45.12	57
46.39	50
48.11	57
49.15	44
51.17	48
53.4943	58
56.79	53
58.13	66
59.65	66
64.11	57
64.9633	56
65.65	53
66.7	50
68.78	48
70.49	48
73.98	48
74.89	66
76.33	48
76.92	53
78.0333	54
78.58	35
79.83	46
83.11	53
85.68	66
86.89	35
87.58	35
90.66	39
93.735	44
95	48
95.69	48
98.625	55
100.81	66
101.91	66
104.27	62
104.72	66
105.48	71
106.3825	38
107.7	48
108.4	48
110.96	53
112.015	66
113.29	35
115.05	53
115.9986	683
117.0233	85
119.06	39
120.75	62
122.42	35
123.53	57
126.03	39
126.955	48
129.1	142
131.4	48
135.525	62
139.98	44
144.24	57
146.69	55
148.035	57
156.94	35
159.91	44
161.19	48
162.82	46
168.085	73
168.86	71
170.25	39
177.64	39
179.47	39
181.24	62
183.22	55
184.19	75
185.15	969
186.25	217
190.41	75
192.71	39
197.13	44
201.73	39
212.14	48
212.96	44
222.3	44
229.075	999
230.19	91
306.77	44
339.8	39
422.09	48
443.34	35
514.055	53
641.32	39
650.98	35
669.16	44
671.45	39
720.06	48
767.83	35
829.17	35
865.02	53
985.15	35
