Mass spectrum: RIBITOL; LC-ESI-QTOF; MS2; CE: 10;  [M-H]-
Name: RIBITOL
Class: NA
Formula: C5H12O5
Exact mass: 152.06847
SMILES: OC[C@H](O)[C@H](O)[C@H](O)CO
InChI: InChI=1S/C5H12O5/c6-1-3(8)5(10)4(9)2-7/h3-10H,1-2H2/t3-,4+,5-
Instrument: Agilent 6530Â Q-TOF LC/MS
Instrument type: LC-ESI-QTOF
Ms type: MS2
Ion mode: NEGATIVE
Ionization: ESI
Collision energy: 10
Column name: NA
Retention time: 0.200 min
Base peak: 151.05789
Precursor m/z: 151.05789
Precursor type: [M-H]-
Precursor intensity: 180
m/z	relative intensity
41.0053	140
43.0273	141
55.0285	157
57.0352	185
59.0338	194
71.033	219
73.0308	385
83.0144	412
85.025	466
89.0397	573
101.0391	714
119.0339	868
151.0755	999
