Mass spectrum: N-Acetylneuraminic acid; LC-ESI-ITFT; MS2; CE: 100;  [M+H]+
Name: N-Acetylneuraminic acid
Class: Organic oxygen compounds; Organooxygen compounds; Carbohydrates and carbohydrate conjugates
Formula: C11H19NO9
Exact mass: 309.10598
SMILES: CC(=O)N[C@@H]1[C@@H](O)C[C@](O)(O[C@H]1[C@H](O)[C@H](O)CO)C(O)=O
InChI: InChI=1S/C11H19NO9/c1-4(14)12-7-5(15)2-11(20,10(18)19)21-9(7)8(17)6(16)3-13/h5-9,13,15-17,20H,2-3H2,1H3,(H,12,14)(H,18,19)/t5-,6+,7+,8+,9+,11-/m0/s1
Instrument: Thermo Scientific Q-Exactive Focus
Instrument type: LC-ESI-ITFT
Ms type: MS2
Ion mode: POSITIVE
Ionization: ESI
Collision energy: 100
Column name: Acquity CSHC18
Retention time: 2.570 min
Base peak: 310.11325
Precursor m/z: 310.11325
Precursor type: [M+H]+
m/z	relative intensity
51.0235	681
53.0028	366
53.0392	899
54.0344	403
55.0184	291
56.05	449
65.0391	999
68.05	298
68.9976	235
80.0499	690
