Mass spectrum: Dehydrocostuslacton; LC-ESI-ITFT; MS2; CE: 50eV;  [M+H]+
Name: Dehydrocostuslacton
Class: Sesquiterpenelactone; Guaianolide
Formula: C15H18O2
Exact mass: 230.1307
SMILES: C=C1CC[C@@H]2[C@@H]([C@@H]3[C@H]1CCC3=C)OC(=O)C2=C
InChI: InChI=1S/C15H18O2/c1-8-4-7-12-10(3)15(16)17-14(12)13-9(2)5-6-11(8)13/h11-14H,1-7H2/t11-,12-,13-,14-/m0/s1
Instrument: Q Exactive Plus, ThermoFisher Scientific
Instrument type: LC-ESI-ITFT
Ms type: MS2
Ion mode: POSITIVE
Ionization: ESI
Collision energy: 50eV
Column name: Acquity CSHC18
Retention time: 12.184 min
Base peak: 231.1376
Precursor m/z: 231.1376
Precursor type: [M+H]+
Precursor intensity: 3005274000
m/z	relative intensity
51.7497	23
69.0341	25
70.6899	61
81.0707	117
93.0709	32
95.0856	26
104.8618	27
105.0699	89
111.4868	25
117.0695	32
119.0859	36
129.0699	44
131.0861	184
131.2144	22
134.7499	25
143.086	244
145.1009	233
157.0644	35
157.1017	147
159.106	25
159.1174	172
161.1197	26
171.1174	30
175.0765	110
176.0893	23
185.1332	999
187.1494	40
189.09	41
195.1173	149
203.1428	49
213.127	141
223.2667	27
226.1548	24
231.1385	892
