Mass spectrum: NICOTINAMIDE; LC-ESI-QTOF; MS2; CE: 20;  [M-H]-
Name: NICOTINAMIDE
Class: NA
Formula: C6H6N2O
Exact mass: 122.04801
SMILES: NC(=O)C1=CN=CC=C1
InChI: InChI=1S/C6H6N2O/c7-6(9)5-2-1-3-8-4-5/h1-4H,(H2,7,9)
Instrument: Agilent 6530Â Q-TOF LC/MS
Instrument type: LC-ESI-QTOF
Ms type: MS2
Ion mode: NEGATIVE
Ionization: ESI
Collision energy: 20
Column name: NA
Retention time: 0.200 min
Base peak: 121.03839
Precursor m/z: 121.03839
Precursor type: [M-H]-
Precursor intensity: 153
m/z	relative intensity
42.005	177
61.0157	379
61.9895	999
