Mass spectrum: Atripliciolide tiglate; LC-ESI-ITFT; MS2; CE: 50eV;  [M+H]+
Name: Atripliciolide tiglate
Class: Sesquiterpenelactone; Heliangolide
Formula: C20H22O6
Exact mass: 358.1416
SMILES: C/C=C(\C)/C(=O)O[C@@H]1C[C@@]2(C(=O)C=C(O2)/C(=C\[C@@H]3[C@@H]1C(=C)C(=O)O3)/C)C
InChI: InChI=1S/C20H22O6/c1-6-10(2)18(22)25-15-9-20(5)16(21)8-13(26-20)11(3)7-14-17(15)12(4)19(23)24-14/h6-8,14-15,17H,4,9H2,1-3,5H3/b10-6+,11-7-/t14-,15-,17+,20-/m1/s1
Instrument: Q Exactive Plus, ThermoFisher Scientific
Instrument type: LC-ESI-ITFT
Ms type: MS2
Ion mode: POSITIVE
Ionization: ESI
Collision energy: 50eV
Column name: Acquity CSHC18
Retention time: 7.516 min
Base peak: 359.1493
Precursor m/z: 359.1493
Precursor type: [M+H]+
Precursor intensity: 1038390000
m/z	relative intensity
51.0211	9
52.6131	9
55.0553	598
58.0333	9
67.6312	10
68.6992	19
68.703	57
69.6024	10
83.05	999
87.0009	9
95.0498	11
97.4342	13
97.4406	52
120.4957	9
129.0707	15
131.0855	11
141.0693	11
142.0791	17
143.085	24
145.0647	13
145.1011	15
147.0789	15
157.0646	17
157.102	68
161.0598	11
167.0862	24
170.0734	14
171.0813	63
175.0763	39
179.0832	10
185.0968	256
195.0803	43
198.0679	47
213.0908	109
231.1003	21
241.0855	18
