Mass spectrum: Citral; APCI-ITFT; MS2; CE: CID 40;  [M-H]-
Name: Citral
Class: NA
Formula: C10H16O
Exact mass: 152.12012
SMILES: CC(=CCCC(=CC=O)C)C
InChI: InChI=1S/C10H16O/c1-9(2)5-4-6-10(3)7-8-11/h5,7-8H,4,6H2,1-3H3
Instrument: Orbitrap Elite
Instrument type: APCI-ITFT
Ms type: MS2
Ion mode: NEGATIVE
Ionization: APCI
Collision energy: CID 40
Column name: Acquity CSHC18
Retention time: 0.192 min
Base peak: 151.11310
Precursor m/z: 151.11310
Precursor type: [M-H]-
Precursor intensity: 32812.98
m/z	relative intensity
65.4548	131
78.4357	121
80.9259	128
83.0509	999
97.437	128
97.9036	116
99.494	125
107.05	262
109.066	433
118.1877	115
120.9901	127
123.0448	213
123.0822	258
129.8665	139
133.0661	790
133.1023	217
136.7598	116
136.9022	127
142.662	119
