Mass spectrum: 4-coumaric acid; LC-ESI-ITFT; MS2; CE: 0.3;  [M-H]-
Name: 4-coumaric acid
Class: phenolic acids
Formula: C9H8O3
Exact mass: 164.0473
SMILES: C1=CC(=CC=C1C=CC(=O)O)O
InChI: InChI=1S/C9H8O3/c10-8-4-1-7(2-5-8)3-6-9(11)12/h1-6,10H,(H,11,12)
Instrument: LTQ-Orbitrap XL hybrid mass spectrometer (Thermo Scientific)
Instrument type: LC-ESI-ITFT
Ms type: MS2
Ion mode: NEGATIVE
Ionization: ESI
Collision energy: 0.3
Column name: Acquity CSHC18
Retention time: 6.959 min
Base peak: 163.0405
Precursor m/z: 163.0405
Precursor type: [M-H]-
Precursor intensity: 24929910
m/z	relative intensity
55.1093	3
55.4291	2
60.2344	3
63.2556	3
64.006	2
64.9066	2
65.7469	2
71.8021	4
71.8045	4
71.8057	3
74.7052	3
74.8098	2
76.5797	2
90.6443	3
95.1648	2
95.6625	2
98.7945	2
117.9285	4
118.3009	4
118.4878	10
118.675	6
118.6799	2
118.75	4
118.8628	2
119.0468	4
119.0475	7
119.051	999
119.0554	8
119.0596	2
119.0603	6
119.353	4
119.4287	7
119.6181	8
119.8081	4
162.1386	5
162.4383	3
162.5583	2
163.0291	2
163.0332	3
163.0349	4
163.0406	707
163.0459	2
163.0476	3
163.0494	4
