Mass spectrum: 5'-DEOXYADENOSINE; LC-ESI-QFT; MS2; CE: 30eV;  [M-H]-
Name: 5'-DEOXYADENOSINE
Class: NA
Formula: C10H13N5O3
Exact mass: 251.10184
SMILES: C[C@H]1O[C@H]([C@H](O)[C@@H]1O)N1C=NC2=C(N)N=CN=C12
InChI: InChI=1S/C10H13N5O3/c1-4-6(16)7(17)10(18-4)15-3-14-5-8(11)12-2-13-9(5)15/h2-4,6-7,10,16-17H,1H3,(H2,11,12,13)/t4-,6-,7-,10-/m1/s1
Instrument: Q-Exactive Orbitrap, Thermo Scientfic; Ultimate 3000 HPLC, Thermo Scientfic
Instrument type: LC-ESI-QFT
Ms type: MS2
Ion mode: NEGATIVE
Ionization: ESI
Collision energy: 30eV
Column name: Acquity CSHC18
Retention time: 2.259 min
Base peak: 250.0946
Precursor m/z: 250.0946
Precursor type: [M-H]-
Precursor intensity: 135
m/z	relative intensity
50.6294	12
51.884	11
53.0101	11
59.5789	11
72.6427	15
73.4081	15
76.6585	13
85.0659	11
92.9432	14
99.8244	15
100.6346	15
110.2546	14
128.5219	14
134.0457	999
135.0956	14
151.1647	14
153.9563	13
162.8775	22
226.8934	15
250.0945	100
250.1445	16
271.46	16
