Mass spectrum: Hypotaurine; LC-ESI-ITFT; MS2; CE: 40;  [M-H]-
Name: Hypotaurine
Class: Organic acids and derivatives; Sulfinic acids and derivatives; Sulfinic acids
Formula: C2H7NO2S
Exact mass: 109.01975
SMILES: NCCS(O)=O
InChI: InChI=1S/C2H7NO2S/c3-1-2-6(4)5/h1-3H2,(H,4,5)
Instrument: Thermo Scientific Q-Exactive Focus
Instrument type: LC-ESI-ITFT
Ms type: MS2
Ion mode: NEGATIVE
Ionization: ESI
Collision energy: 40
Column name: Acquity CSHC18
Retention time: 1.476 min
Base peak: 108.01247
Precursor m/z: 108.01247
Precursor type: [M-H]-
m/z	relative intensity
61.5988	3
61.8031	3
63.6867	4
63.9612	999
64.6041	3
64.969	6
75.5498	3
78.1631	3
92.5151	6
96.4712	3
