Mass spectrum: 17-phenyl trinor Prostaglandin F2-alpha amide; ESI-TOF; MS2; CE: 0.6458333;  [M+H]+
Name: 17-phenyl trinor Prostaglandin F2-alpha amide
Class: NA
Formula: C23H33NO4
Exact mass: 387.24096
SMILES: O[C@@H]1[C@H](C/C=C\CCCC(N)=O)[C@@H](/C=C/[C@@H](O)CCC2=CC=CC=C2)[C@H](O)C1
InChI: InChI=1S/C23H33NO4/c24-23(28)11-7-2-1-6-10-19-20(22(27)16-21(19)26)15-14-18(25)13-12-17-8-4-3-5-9-17/h1,3-6,8-9,14-15,18-22,25-27H,2,7,10-13,16H2,(H2,24,28)/b6-1-,15-14+/t18-,19+,20+,21-,22+/m0/s1
Instrument: waters xevo g2 TOF
Instrument type: ESI-TOF
Ms type: MS2
Ion mode: POSITIVE
Ionization: ESI
Collision energy: 0.6458333
Column name: Acquity CSHC18
Retention time: 3.116 min
Base peak: 388.24896
Precursor m/z: 388.24896
Precursor type: [M+H]+
m/z	relative intensity
91.0551	999
92.0572	44
100.0762	28
105.0708	339
107.0865	37
115.0544	54
117.0707	610
118.0741	52
129.0706	375
130.0759	39
131.0864	934
132.0907	69
133.1023	108
135.0807	21
141.0707	220
142.0758	34
143.0851	316
145.1019	204
147.1152	25
151.1119	3
153.0705	24
155.0867	166
156.0938	19
157.1014	209
159.116	64
161.0975	3
165.0716	50
167.0866	179
168.1391	62
169.1214	150
170.1081	48
171.1169	295
173.0967	3
175.11	26
179.0854	125
180.094	32
181.1014	165
182.5819	3
183.0842	3
184.0289	22
185.0972	135
187.112	186
188.1134	3
190.1232	3
193.1009	68
194.1087	19
195.1157	161
195.5918	3
196.103	15
197.0955	21
198.1376	23
201.1259	21
204.1385	3
204.5979	3
205.1004	59
207.1171	190
209.1327	48
211.1486	3
219.1178	101
221.1322	108
223.146	15
225.1195	20
230.1554	3
233.1334	158
235.1466	3
249.1625	50
263.1786	36
271.1467	45
273.1605	3
275.1803	287
289.1942	76
290.1939	20
291.1746	85
292.1754	15
293.1866	3
298.2171	3
299.1791	200
300.1799	27
308.1999	40
309.1847	7
317.1902	526
318.1933	100
319.1944	3
326.2101	3
329.1205	29
334.2164	376
335.1626	91
336.2131	3
346.1461	309
351.1285	260
352.2251	69
353.228	16
364.1587	440
367.6976	27
369.1393	3
370.2381	3
371.24	3
372.2435	3
380.1307	243
381.1339	51
389.2148	50
390.1673	23
