Mass spectrum: glycyrrhizic acid; LC-ESI-ITFT; MS2; CE: 0.3;  [M-H]-
Name: glycyrrhizic acid
Class: saponins
Formula: C42H62O16
Exact mass: 822.4038
SMILES: CC1(C2CCC3(C(C2(CCC1OC4C(C(C(C(O4)C(=O)O)O)O)OC5C(C(C(C(O5)C(=O)O)O)O)O)C)C(=O)C=C6C3(CCC7(C6CC(CC7)(C)C(=O)O)C)C)C)C
InChI: InChI=1S/C42H62O16/c1-37(2)21-8-11-42(7)31(20(43)16-18-19-17-39(4,36(53)54)13-12-38(19,3)14-15-41(18,42)6)40(21,5)10-9-22(37)55-35-30(26(47)25(46)29(57-35)33(51)52)58-34-27(48)23(44)24(45)28(56-34)32(49)50/h16,19,21-31,34-35,44-48H,8-15,17H2,1-7H3,(H,49,50)(H,51,52)(H,53,54)
Instrument: LTQ-Orbitrap XL hybrid mass spectrometer (Thermo Scientific)
Instrument type: LC-ESI-ITFT
Ms type: MS2
Ion mode: NEGATIVE
Ionization: ESI
Collision energy: 0.3
Column name: Acquity CSHC18
Retention time: 9.858 min
Base peak: 821.3955
Precursor m/z: 821.3955
Precursor type: [M-H]-
Precursor intensity: 9910905
m/z	relative intensity
228.8017	8
287.1293	22
289.0568	27
324.221	27
333.0487	11
334.5832	8
351.0564	999
379.8605	8
469.3266	13
477.939	9
583.3702	8
614.5048	8
627.354	24
645.3641	111
759.3946	71
777.4081	19
803.3844	140
