Mass spectrum: Misoprostol; ESI-TOF; MS2; CE: 6.0000000;  [M+H]+
Name: Misoprostol
Class: NA
Formula: C22H38O5
Exact mass: 382.27192
SMILES: CCCCC(C)(O)C/C=C/[C@H]1C(O)CC(=O)C1CCCCCCC(=O)OC
InChI: InChI=1S/C22H38O5/c1-4-5-14-22(2,26)15-10-12-18-17(19(23)16-20(18)24)11-8-6-7-9-13-21(25)27-3/h10,12,17-18,20,24,26H,4-9,11,13-16H2,1-3H3/b12-10+/t17?,18-,20?,22?/m1/s1
Instrument: waters xevo g2 TOF
Instrument type: ESI-TOF
Ms type: MS2
Ion mode: POSITIVE
Ionization: ESI
Collision energy: 6.0000000
Column name: Acquity CSHC18
Retention time: 4.122 min
Base peak: 383.27992
Precursor m/z: 383.27992
Precursor type: [M+H]+
m/z	relative intensity
81.0701	13
95.0857	7
107.0862	17
119.0854	2
121.0665	13
123.1172	15
163.1485	23
163.9808	4
175.1478	3
180.0989	33
189.1288	22
193.1067	145
193.6089	30
199.1127	25
202.1126	142
203.1146	7
205.1243	23
207.136	7
213.1461	7
217.159	147
218.1416	20
231.1393	19
234.1543	4
235.1334	79
241.116	20
241.6222	4
259.1697	36
260.1719	7
267.1595	119
269.2277	5
271.2045	7
287.2362	8
290.2253	5
291.2317	28
293.2479	42
297.2204	104
305.2491	464
306.2524	80
315.233	999
316.2342	242
319.2627	12
321.2427	47
326.3813	15
329.2445	56
330.2399	6
333.1886	150
334.2466	69
336.1046	176
337.1102	52
339.1086	21
347.258	897
348.2617	210
349.2656	26
365.2696	821
366.2733	183
367.2767	22
