Mass spectrum: Picolinic acid; ESI-TOF; MS2; CE: 0.6458333;  [M+H]+
Name: Picolinic acid
Class: NA
Formula: C6H5NO2
Exact mass: 123.03203
SMILES: OC(=O)C1=CC=CC=N1
InChI: InChI=1S/C6H5NO2/c8-6(9)5-3-1-2-4-7-5/h1-4H,(H,8,9)
Instrument: waters xevo g2 TOF
Instrument type: ESI-TOF
Ms type: MS2
Ion mode: POSITIVE
Ionization: ESI
Collision energy: 0.6458333
Column name: Acquity CSHC18
Retention time: 0.624 min
Base peak: 124.04003
Precursor m/z: 124.04003
Precursor type: [M+H]+
m/z	relative intensity
78.0346	257
96.0452	999
96.9618	260
106.0292	2
106.0293	198
124.0397	2
124.0398	2
125.0431	2
130.0091	2
130.0861	2
130.087	2
131.0887	2
138.0561	2
168.0041	69
254.9829	2
258.1712	2
299.9825	2
423.0149	2
444.9977	33
