Mass spectrum: 8-Hydroxy-p-cymene; LC-ESI-QTOF; MS2; CE: 15.00;  [M-H2O+H]+
Name: 8-Hydroxy-p-cymene
Class: NA
Formula: C10H14O
Exact mass: 150.1045
SMILES: CC1=CC=C(C=C1)C(C)(C)O
InChI: InChI=1S/C10H14O/c1-8-4-6-9(7-5-8)10(2,3)11/h4-7,11H,1-3H3
Instrument: Bruker MicrOTOF-Q
Instrument type: LC-ESI-QTOF
Ms type: MS2
Ion mode: POSITIVE
Ionization: ESI
Collision energy: 15.00
Column name: Acquity CSHC18
Retention time: NA
Base peak: 133.1012
Precursor m/z: 133.1012
Precursor type: [M-H2O+H]+
m/z	relative intensity
103.0509	28
104.0583	6
105.0676	85
106.0687	13
115.0528	285
116.0553	81
117.0673	182
118.0734	52
129.0684	7
131.0837	55
132.09	8
133.0994	999
134.1052	122
