Mass spectrum: 3-Sulfinoalanine; LC-ESI-ITFT; MS2; CE: 100;  [M-H]-
Name: 3-Sulfinoalanine
Class: Organic acids and derivatives; Carboxylic acids and derivatives; Amino acids, peptides, and analogues
Formula: C3H7NO4S
Exact mass: 153.00958
SMILES: C([C@@H](C(=O)O)N)S(=O)=O
InChI: InChI=1S/C3H7NO4S/c4-2(3(5)6)1-9(7)8/h2,9H,1,4H2,(H,5,6)/t2-/m0/s1
Instrument: Thermo Scientific Q-Exactive Focus
Instrument type: LC-ESI-ITFT
Ms type: MS2
Ion mode: NEGATIVE
Ionization: ESI
Collision energy: 100
Column name: Acquity CSHC18
Retention time: 2.322 min
Base peak: 152.00230
Precursor m/z: 152.00230
Precursor type: [M-H]-
m/z	relative intensity
58.9278	230
63.9612	999
74.4137	239
78.9882	254
94.5749	234
98.6655	227
112.4033	238
120.2332	237
148.0586	253
172.2059	259
