Mass spectrum: Creatinine; LC-ESI-ITFT; MS2; CE: 60;  [M-H]-
Name: Creatinine
Class: Organic acids and derivatives; Carboxylic acids and derivatives; Amino acids, peptides, and analogues
Formula: C4H7N3O
Exact mass: 113.05891
SMILES: CN1CC(=O)NC1=N
InChI: InChI=1S/C4H7N3O/c1-7-2-3(8)6-4(7)5/h2H2,1H3,(H2,5,6,8)
Instrument: Thermo Scientific Q-Exactive Focus
Instrument type: LC-ESI-ITFT
Ms type: MS2
Ion mode: NEGATIVE
Ionization: ESI
Collision energy: 60
Column name: Acquity CSHC18
Retention time: 2.026 min
Base peak: 112.05164
Precursor m/z: 112.05164
Precursor type: [M-H]-
m/z	relative intensity
56.5394	868
78.7874	925
88.1982	887
95.5504	890
97.1162	871
113.9417	863
117.6192	903
120.6046	999
121.6598	820
128.3546	819
