Mass spectrum: Glutathione; LC-ESI-ITFT; MS2; CE: 20;  [M-H]-
Name: Glutathione
Class: Organic acids and derivatives; Carboxylic acids and derivatives; Amino acids, peptides, and analogues
Formula: C10H17N3O6S
Exact mass: 307.08381
SMILES: N[C@@H](CCC(=O)N[C@@H](CS)C(=O)NCC(O)=O)C(O)=O
InChI: InChI=1S/C10H17N3O6S/c11-5(10(18)19)1-2-7(14)13-6(4-20)9(17)12-3-8(15)16/h5-6,20H,1-4,11H2,(H,12,17)(H,13,14)(H,15,16)(H,18,19)/t5-,6-/m0/s1
Instrument: Thermo Scientific Q-Exactive Focus
Instrument type: LC-ESI-ITFT
Ms type: MS2
Ion mode: NEGATIVE
Ionization: ESI
Collision energy: 20
Column name: Acquity CSHC18
Retention time: 0.643 min
Base peak: 306.07654
Precursor m/z: 306.07654
Precursor type: [M-H]-
m/z	relative intensity
74.0235	170
99.0552	126
128.0342	543
143.0452	999
146.0448	83
153.0659	73
160.0064	181
167.0452	77
179.0454	168
210.0878	181
