Mass spectrum: Feruloyl dehydrotyramine; LC-ESI-QTOF; MS2; CE: 20-40eV;  [M+H]+
Name: Feruloyl dehydrotyramine
Class: Hydroxycinnamic acids and derivatives
Formula: C18H17NO4
Exact mass: 311.1158
SMILES: COC=1C=C(C=CC1O)C(=C(C(=NC(=C(C2=CC=C(C=C2)O)[H])[H])O)[H])[H]
InChI: InChI=1S/C18H17NO4/c1-23-17-12-14(4-8-16(17)21)5-9-18(22)19-11-10-13-2-6-15(20)7-3-13/h2-12,20-21H,1H3,(H,19,22)
Instrument: Impact II, Bruker; Dionex 3000, Thermo Scientific
Instrument type: LC-ESI-QTOF
Ms type: MS2
Ion mode: POSITIVE
Ionization: ESI
Collision energy: 20-40eV
Column name: Acquity CSHC18
Retention time: 4.940 min
Base peak: 312.1238
Precursor m/z: 312.1238
Precursor type: [M+H]+
Precursor intensity: 6114.75
m/z	relative intensity
103.0525	24
106.042	39
117.0325	265
117.0723	24
118.0831	32
123.0792	24
134.0351	72
135.0769	28
145.0288	225
146.0315	64
149.0599	90
177.054	999
178.0577	101
199.089	27
300.1122	44
312.1256	61
