Mass spectrum: Fluprostenol isopropyl ester; ESI-TOF; MS2; CE: 6.0000000;  [M+H]+
Name: Fluprostenol isopropyl ester
Class: NA
Formula: C26H35F3O6
Exact mass: 500.23857
SMILES: CC(C)OC(=O)CCCC=CCC1C(CC(C1C=CC(COC2=CC=CC(=C2)C(F)(F)F)O)O)O
InChI: InChI=1S/C26H35F3O6/c1-17(2)35-25(33)11-6-4-3-5-10-21-22(24(32)15-23(21)31)13-12-19(30)16-34-20-9-7-8-18(14-20)26(27,28)29/h3,5,7-9,12-14,17,19,21-24,30-32H,4,6,10-11,15-16H2,1-2H3
Instrument: waters xevo g2 TOF
Instrument type: ESI-TOF
Ms type: MS2
Ion mode: POSITIVE
Ionization: ESI
Collision energy: 6.0000000
Column name: Acquity CSHC18
Retention time: 4.563 min
Base peak: 501.24657
Precursor m/z: 501.24657
Precursor type: [M+H]+
m/z	relative intensity
113.9654	39
117.0714	9
121.0292	13
131.0858	7
131.9534	7
133.102	9
145.1021	27
147.1181	51
157.1023	7
161.1147	26
171.118	68
175.1115	2
177.1624	3
179.0964	5
181.1014	13
183.1175	37
189.1284	434
190.1307	44
191.1376	3
196.0026	2
197.1329	46
199.1122	36
207.1377	896
208.1421	124
215.1427	28
217.1235	77
219.068	93
219.5687	20
225.1284	261
226.1327	33
231.1299	6
233.1548	18
235.0804	8
243.1381	532
244.142	84
249.1856	999
250.1893	159
251.1917	16
259.1686	43
261.149	216
262.1501	15
277.1803	40
279.1582	70
280.1621	9
285.1854	744
286.187	147
287.1921	15
299.0967	11
303.1968	508
304.1985	89
305.2037	8
321.2068	354
322.209	60
482.1368	20
499.197	5
501.2434	47
502.2511	21
