Mass spectrum: Turanose; LC-ESI-ITFT; MS2; CE: 40;  [M-H]-
Name: Turanose
Class: Lipids and lipid-like molecules; Fatty Acyls; Fatty acyl glycosides
Formula: C12H22O11
Exact mass: 342.11621
SMILES: OC[C@@H](O)[C@@H](O)[C@H](O[C@H]1O[C@H](CO)[C@@H](O)[C@H](O)[C@H]1O)C(=O)CO
InChI: InChI=1S/C12H22O11/c13-1-4(16)7(18)11(5(17)2-14)23-12-10(21)9(20)8(19)6(3-15)22-12/h4,6-16,18-21H,1-3H2/t4-,6-,7-,8-,9+,10-,11-,12-/m1/s1
Instrument: Thermo Scientific Q-Exactive Focus
Instrument type: LC-ESI-ITFT
Ms type: MS2
Ion mode: NEGATIVE
Ionization: ESI
Collision energy: 40
Column name: Acquity CSHC18
Retention time: 1.481 min
Base peak: 341.10892
Precursor m/z: 341.10892
Precursor type: [M-H]-
m/z	relative intensity
57.0334	47
58.0048	27
59.0127	999
71.0126	511
72.9919	34
85.0283	239
89.0232	158
95.0126	97
101.0233	57
113.0232	114
