Mass spectrum: D-ORNITHINE; LC-ESI-QTOF; MS2; CE: 10;  [M+H]+
Name: D-ORNITHINE
Class: NA
Formula: C5H12N2O2
Exact mass: 132.0899
SMILES: NCCC[C@@H](N)C(O)=O
InChI: InChI=1S/C5H12N2O2/c6-3-1-2-4(7)5(8)9/h4H,1-3,6-7H2,(H,8,9)/t4-/m1/s1
Instrument: Agilent 6530Â Q-TOF LC/MS
Instrument type: LC-ESI-QTOF
Ms type: MS2
Ion mode: POSITIVE
Ionization: ESI
Collision energy: 10
Column name: NA
Retention time: 0.200 min
Base peak: 133.09682
Precursor m/z: 133.09682
Precursor type: [M+H]+
Precursor intensity: 67.5
m/z	relative intensity
40.5274	9
51.5368	9
52.0173	16
56.9739	36
61.1784	22
62.4161	19
62.9323	41
63.0122	32
63.0346	11
63.2158	9
64.0402	14
64.6726	16
64.923	67
70.0674	999
70.1319	21
70.321	6
70.5459	11
70.6533	32
71.4522	6
73.0632	77
73.3172	37
73.5856	4
74.928	65
78.0289	123
78.0819	8
82.2047	9
84.8749	36
86.5463	26
86.7205	27
88.0182	45
88.0461	14
88.0746	1
91.0309	26
91.052	8
91.9024	129
92.8943	18
95.7502	57
96.1095	14
96.141	6
100.9556	203
101.0984	3
102.8505	27
103.9539	129
104.3365	9
105.9523	63
114.9142	11
115.063	13
115.0987	18
115.1624	16
116.0662	123
127.5926	49
127.6477	11
131.8768	11
133.0904	205
136.0272	154
137.8351	50
137.8852	4
