Mass spectrum: Macarpine; LC-ESI-ITFT; MS2; CE: 0.3;  [M]+
Name: Macarpine
Class: alkaloids
Formula: [C22H18NO6]+
Exact mass: 392.1129
SMILES: C[N+]1=CC2=C3C(=CC(=C2C4=C1C5=CC6=C(C=C5C(=C4)OC)OCO6)OC)OCO3
InChI: InChI=1S/C22H18NO6/c1-23-8-14-20(18(25-3)7-19-22(14)29-10-28-19)13-6-15(24-2)11-4-16-17(27-9-26-16)5-12(11)21(13)23/h4-8H,9-10H2,1-3H3/q+1
Instrument: LTQ-Orbitrap XL hybrid mass spectrometer (Thermo Scientific)
Instrument type: LC-ESI-ITFT
Ms type: MS2
Ion mode: POSITIVE
Ionization: ESI
Collision energy: 0.3
Column name: Acquity CSHC18
Retention time: 7.899 min
Base peak: 392.1119
Precursor m/z: 392.1119
Precursor type: [M]+
Precursor intensity: 79004410
m/z	relative intensity
97.6217	2
97.7089	2
102.4495	2
104.5163	2
104.9995	1
105.4694	1
106.5537	2
107.5027	2
110.5073	2
115.088	2
120.9471	2
127.4927	2
128.8587	2
135.094	2
136.6839	2
145.8141	2
148.6183	2
149.3572	2
155.2748	2
157.6495	1
166.9467	5
173.1766	2
175.3979	2
193.6755	2
200.6901	2
218.4967	2
223.5907	2
225.2714	2
225.8509	2
236.6863	2
237.2669	2
237.7861	2
242.0894	2
244.7098	2
269.4381	2
270.0698	2
273.7558	2
283.8546	2
287.4933	2
296.2583	2
298.5316	3
303.7663	3
304.8709	2
307.1817	2
308.6891	2
310.3059	2
310.9871	3
312.4486	2
313.0639	2
313.9797	2
317.1828	2
318.3939	2
322.7081	3
323.2997	2
323.7685	3
324.0709	3
326.2076	2
328.0476	2
328.421	2
331.0859	3
332.4187	3
332.8916	3
334.1072	34
336.0457	3
347.079	8
348.086	36
349.0939	31
349.6628	3
359.0782	12
359.6113	2
360.0796	3
361.0941	27
362.0987	6
364.117	49
366.4095	2
371.077	3
372.8739	3
373.6951	3
373.9291	4
376.0807	23
376.3068	3
376.9305	3
376.9469	6
376.9909	7
377.0127	3
377.0889	999
377.1707	4
377.1917	5
377.215	4
377.236	4
377.2571	4
377.3211	3
378.0918	65
379.1703	4
380.2968	5
381.0078	3
388.9355	2
389.131	3
389.3739	3
392.1148	5
392.322	2
