Mass spectrum: N-ACETYLMANNOSAMINE; LC-ESI-QFT; MS2; CE: 30eV;  [M-H]-
Name: N-ACETYLMANNOSAMINE
Class: NA
Formula: C8H15NO6
Exact mass: 221.08994
SMILES: [H][C@@]1(O)O[C@H](CO)[C@@H](O)[C@H](O)[C@@H]1NC(C)=O
InChI: InChI=1S/C8H15NO6/c1-3(11)9-5-7(13)6(12)4(2-10)15-8(5)14/h4-8,10,12-14H,2H2,1H3,(H,9,11)/t4-,5+,6-,7-,8-/m1/s1
Instrument: Q-Exactive Orbitrap, Thermo Scientfic; Ultimate 3000 HPLC, Thermo Scientfic
Instrument type: LC-ESI-QFT
Ms type: MS2
Ion mode: NEGATIVE
Ionization: ESI
Collision energy: 30eV
Column name: Acquity CSHC18
Retention time: 0.585 min
Base peak: 220.0827
Precursor m/z: 220.0827
Precursor type: [M-H]-
Precursor intensity: 168
m/z	relative intensity
56.9548	8
58.0282	11
59.0123	962
71.0122	75
73.4219	10
76.9683	10
78.9574	113
79.0708	9
83.0123	13
84.7846	7
88.553	10
88.8954	8
89.0229	163
92.0162	8
93.6162	7
93.7632	8
100.0389	380
101.0229	206
102.9829	14
104.9636	11
116.9812	14
119.0335	103
125.3771	10
138.9785	45
143.3815	9
148.9534	999
166.203	10
210.0329	9
219.9832	14
220.9394	22
