Mass spectrum: Tetrahydropapaveroline; LC-ESI-QTOF; MS2; CE: 20-40eV;  [M+H]+
Name: Tetrahydropapaveroline
Class: Alkaloids
Formula: C16H17NO4
Exact mass: 287.1158
SMILES: C1=CC(=C(C=C1CC2C3=CC(=C(C=C3CCN2)O)O)O)O
InChI: InChI=1S/C16H17NO4/c18-13-2-1-9(6-14(13)19)5-12-11-8-16(21)15(20)7-10(11)3-4-17-12/h1-2,6-8,12,17-21H,3-5H2
Instrument: Impact II, Bruker; Dionex 3000, Thermo Scientific
Instrument type: LC-ESI-QTOF
Ms type: MS2
Ion mode: POSITIVE
Ionization: ESI
Collision energy: 20-40eV
Column name: Acquity CSHC18
Retention time: 2.225 min
Base peak: 288.1233
Precursor m/z: 288.1233
Precursor type: [M+H]+
Precursor intensity: 19908
m/z	relative intensity
105.0504	295
118.0752	596
161.0466	999
