Mass spectrum: Quercetin; LC-ESI-ITFT; MS2; CE: 0.3;  [M-H]-
Name: Quercetin
Class: flavonols
Formula: C15H10O7
Exact mass: 302.0427
SMILES: C1=CC(=C(C=C1C2=C(C(=O)C3=C(C=C(C=C3O2)O)O)O)O)O
InChI: InChI=1S/C15H10O7/c16-7-4-10(19)12-11(5-7)22-15(14(21)13(12)20)6-1-2-8(17)9(18)3-6/h1-5,16-19,21H
Instrument: LTQ-Orbitrap XL hybrid mass spectrometer (Thermo Scientific)
Instrument type: LC-ESI-ITFT
Ms type: MS2
Ion mode: NEGATIVE
Ionization: ESI
Collision energy: 0.3
Column name: Acquity CSHC18
Retention time: 7.467 min
Base peak: 301.0351
Precursor m/z: 301.0351
Precursor type: [M-H]-
Precursor intensity: 17840540
m/z	relative intensity
72.0003	7
72.9001	6
83.2882	7
95.653	8
96.8343	8
101.3841	8
104.7673	8
105.876	6
107.0145	59
114.5034	8
116.6332	9
121.0299	29
121.1046	8
131.7834	7
136.6401	8
151.0043	864
155.7184	8
156.0624	10
159.593	10
160.3961	10
163.0043	11
166.9841	12
167.0409	9
178.999	999
193.0146	55
201.3712	7
211.0409	11
212.038	8
229.0514	56
236.1837	10
239.0354	30
245.554	8
255.0295	9
257.0456	125
273.0404	145
283.0232	9
301.035	338
