Mass spectrum: 8-iso Prostaglandin E2; ESI-TOF; MS2; CE: 6.0000000;  [M+H]+
Name: 8-iso Prostaglandin E2
Class: NA
Formula: C20H32O5
Exact mass: 352.22497
SMILES: O[C@H]1[C@H](/C=C/[C@@H](O)CCCCC)[C@H](C/C=C\CCCC(O)=O)C(C1)=O
InChI: InChI=1S/C20H32O5/c1-2-3-6-9-15(21)12-13-17-16(18(22)14-19(17)23)10-7-4-5-8-11-20(24)25/h4,7,12-13,15-17,19,21,23H,2-3,5-6,8-11,14H2,1H3,(H,24,25)/b7-4-,13-12+/t15-,16-,17+,19+/m0/s1
Instrument: waters xevo g2 TOF
Instrument type: ESI-TOF
Ms type: MS2
Ion mode: POSITIVE
Ionization: ESI
Collision energy: 6.0000000
Column name: Acquity CSHC18
Retention time: 3.520 min
Base peak: 353.23297
Precursor m/z: 353.23297
Precursor type: [M+H]+
m/z	relative intensity
149.0579	3
157.1023	2
167.0722	28
174.1335	6
175.1133	2
183.0984	3
195.1032	11
201.1266	48
202.13	6
203.1792	1
207.1007	9
215.1321	8
227.178	26
228.1825	4
229.1943	26
239.1779	9
245.1911	45
247.206	39
248.2087	5
253.1947	18
255.1739	16
257.1895	66
258.1906	11
263.1978	77
264.2018	11
265.2159	37
271.2058	62
272.2081	9
273.1845	37
275.1968	10
281.189	117
282.1897	22
289.2154	68
291.1947	73
292.1983	8
299.2007	823
300.2053	178
301.2022	19
317.2108	999
318.2144	228
319.2177	18
335.2215	338
336.2242	70
337.2288	6
354.195	172
354.6965	38
355.1972	18
