Mass spectrum: Trehalose; ESI-TOF; MS2; CE: 0.6458333;  [M+H]+
Name: Trehalose
Class: NA
Formula: C12H22O11
Exact mass: 342.11621
SMILES: OCC1OC(OC2OC(CO)C(O)C(O)C2O)C(O)C(O)C1O
InChI: InChI=1S/C12H22O11/c13-1-3-5(15)7(17)9(19)11(21-3)23-12-10(20)8(18)6(16)4(2-14)22-12/h3-20H,1-2H2
Instrument: waters xevo g2 TOF
Instrument type: ESI-TOF
Ms type: MS2
Ion mode: POSITIVE
Ionization: ESI
Collision energy: 0.6458333
Column name: Acquity CSHC18
Retention time: 0.554 min
Base peak: 343.12421
Precursor m/z: 343.12421
Precursor type: [M+H]+
m/z	relative intensity
85.0294	731
95.9747	60
97.0295	302
99.0453	4
127.0401	218
143.9596	4
145.0505	402
174.9695	127
198.9694	58
233.9839	98
275.9936	238
275.9947	70
277.0024	491
289.0926	10
294.0028	4
325.1139	65
326.1183	4
360.151	4
361.1561	4
362.1005	4
365.106	999
366.1102	4
396.0356	88
397.0419	110
399.046	4
438.0537	25
505.1732	4
558.0907	22
618.1092	51
685.2401	4
702.264	4
707.2248	40
738.1501	4
