Mass spectrum: Phloretin; ESI-TOF; MS2; CE: 6.0000000;  [M+H]+
Name: Phloretin
Class: NA
Formula: C15H14O5
Exact mass: 274.08412
SMILES: OC1=CC=C(CCC(=O)C2=C(O)C=C(O)C=C2O)C=C1
InChI: InChI=1S/C15H14O5/c16-10-4-1-9(2-5-10)3-6-12(18)15-13(19)7-11(17)8-14(15)20/h1-2,4-5,7-8,16-17,19-20H,3,6H2
Instrument: waters xevo g2 TOF
Instrument type: ESI-TOF
Ms type: MS2
Ion mode: POSITIVE
Ionization: ESI
Collision energy: 6.0000000
Column name: Acquity CSHC18
Retention time: 2.327 min
Base peak: 275.09212
Precursor m/z: 275.09212
Precursor type: [M+H]+
m/z	relative intensity
71.0501	5
85.0294	23
96.9958	4
113.9647	15
127.0405	1
127.9805	14
129.0552	1
137.9882	20
139.9885	1
147.0632	5
153.0191	34
163.9771	1
171.0297	4
172.9778	8
179.0349	1
185.0453	23
186.0484	1
195.0295	5
240.0941	3
255.087	3
257.102	2
263.0561	2
271.1066	13
272.0641	4
273.1711	999
274.0798	176
275.082	52
276.0852	4
281.066	15
282.0699	1
285.0771	1
293.1242	10
297.0743	5
302.0995	1
303.0881	5
309.0608	3
310.0728	1
315.0868	83
316.0902	16
317.0831	1
330.5863	1
339.0863	22
340.0907	4
381.0975	5
383.1121	22
384.1161	10
385.1204	1
399.1087	10
400.1117	1
401.1235	98
402.1271	23
403.1299	4
417.1184	76
418.1217	19
419.134	313
420.1374	78
421.1396	15
425.1158	3
433.1137	2
435.1292	278
436.1321	69
437.1341	14
438.1377	1
443.1333	15
444.1395	3
446.1082	1
459.129	13
460.1361	2
461.1411	21
462.1476	2
464.1288	2
467.1336	1
473.0766	2
477.1393	4
511.1596	1
527.1554	11
528.1595	2
529.1709	4
530.1751	1
545.166	23
546.1717	7
547.1805	6
548.1829	1
563.1761	22
564.1805	6
565.1921	24
566.1956	6
567.1957	1
579.1711	97
580.1733	31
581.1856	125
582.1904	74
583.1927	18
584.1967	1
587.1929	1
589.1939	2
595.1676	1
600.1602	2
600.6634	1
601.1096	3
603.1693	81
604.1721	30
605.1755	9
606.1745	1
607.2014	3
608.1983	1
609.1843	14
610.1865	4
619.1369	7
621.141	2
623.1929	3
633.1771	1
666.1239	8
667.1327	2
675.1248	2
676.1248	3
691.2234	4
709.2331	8
710.2386	3
711.244	1
725.2239	2
727.244	67
728.2473	24
729.2519	7
819.2659	1
869.2484	1
873.2996	4
874.3041	2
889.2974	3
890.2552	5
890.7506	1
891.2196	2
1015.3025	1
1068.2161	3
1161.3619	2
1180.3396	7
1180.8398	9
1181.3438	4
1181.8422	2
1183.3441	11
1184.3491	38
1185.343	5
1186.3455	2
1199.3117	10
