Mass spectrum: N-Acetylneuraminic acid; LC-ESI-ITFT; MS2; CE: 60;  [M-H]-
Name: N-Acetylneuraminic acid
Class: Organic oxygen compounds; Organooxygen compounds; Carbohydrates and carbohydrate conjugates
Formula: C11H19NO9
Exact mass: 309.10598
SMILES: CC(=O)N[C@@H]1[C@@H](O)C[C@](O)(O[C@H]1[C@H](O)[C@H](O)CO)C(O)=O
InChI: InChI=1S/C11H19NO9/c1-4(14)12-7-5(15)2-11(20,10(18)19)21-9(7)8(17)6(16)3-13/h5-9,13,15-17,20H,2-3H2,1H3,(H,12,14)(H,18,19)/t5-,6+,7+,8+,9+,11-/m0/s1
Instrument: Thermo Scientific Q-Exactive Focus
Instrument type: LC-ESI-ITFT
Ms type: MS2
Ion mode: NEGATIVE
Ionization: ESI
Collision energy: 60
Column name: Acquity CSHC18
Retention time: 2.030 min
Base peak: 308.09869
Precursor m/z: 308.09869
Precursor type: [M-H]-
m/z	relative intensity
58.0287	73
59.0127	371
71.049	131
87.0076	999
98.06	314
125.9957	39
179.0257	39
183.5279	41
192.6669	41
253.1474	42
