Mass spectrum: C24 Ceramide (d18:1/24:0); ESI-TOF; MS2; CE: 0.6458333;  [M+H]+
Name: C24 Ceramide (d18:1/24:0)
Class: NA
Formula: C42H83NO3
Exact mass: 649.63730
SMILES: [H]OC([H])([H])C([H])(N([H])C(=O)C([H])([H])C([H])([H])C([H])([H])C([H])([H])C([H])([H])C([H])([H])C([H])([H])C([H])([H])C([H])([H])C([H])([H])C([H])([H])C([H])([H])C([H])([H])C([H])([H])C([H])([H])C([H])([H])C([H])([H])C([H])([H])C([H])([H])C([H])([H])C([H])([H])C([H])([H])C([H])([H])[H])C([H])(O[H])C([H])=C([H])C([H])([H])C([H])([H])C([H])([H])C([H])([H])C([H])([H])C([H])([H])C([H])([H])C([H])([H])C([H])([H])C([H])([H])C([H])([H])C([H])([H])C([H])([H])[H]
InChI: InChI=1S/C42H83NO3/c1-3-5-7-9-11-13-15-17-18-19-20-21-22-23-24-26-28-30-32-34-36-38-42(46)43-40(39-44)41(45)37-35-33-31-29-27-25-16-14-12-10-8-6-4-2/h35,37,40-41,44-45H,3-34,36,38-39H2,1-2H3,(H,43,46)
Instrument: waters xevo g2 TOF
Instrument type: ESI-TOF
Ms type: MS2
Ion mode: POSITIVE
Ionization: ESI
Collision energy: 0.6458333
Column name: Acquity CSHC18
Retention time: 12.506 min
Base peak: 650.64530
Precursor m/z: 650.64530
Precursor type: [M+H]+
m/z	relative intensity
214.9188	24
252.2692	41
264.2692	447
265.2722	88
281.0513	12
282.28	47
320.7893	30
321.2918	14
327.2905	11
327.2938	12
432.3521	37
614.6225	24
615.63	17
632.6341	264
633.6365	103
634.6402	25
650.6434	42
651.6461	18
669.6163	46
670.1183	47
670.6203	28
671.4416	12
672.6257	999
673.6302	476
674.6316	121
687.436	9
734.5947	80
735.6005	27
751.5722	6
994.4366	16
994.9358	25
995.437	17
