Mass spectrum: GLUCOSE 1-PHOSPHATE; LC-ESI-QFT; MS2; CE: 30eV;  [M+H]+
Name: GLUCOSE 1-PHOSPHATE
Class: NA
Formula: C6H13O9P
Exact mass: 260.02972
SMILES: OC[C@H]1OC(OP(O)(O)=O)[C@H](O)[C@@H](O)[C@@H]1O
InChI: InChI=1S/C6H13O9P/c7-1-2-3(8)4(9)5(10)6(14-2)15-16(11,12)13/h2-10H,1H2,(H2,11,12,13)/t2-,3-,4+,5-,6?/m1/s1
Instrument: Q-Exactive Orbitrap, Thermo Scientfic; Ultimate 3000 HPLC, Thermo Scientfic
Instrument type: LC-ESI-QFT
Ms type: MS2
Ion mode: POSITIVE
Ionization: ESI
Collision energy: 30eV
Column name: Acquity CSHC18
Retention time: 0.581 min
Base peak: 261.0370
Precursor m/z: 261.0370
Precursor type: [M+H]+
Precursor intensity: 149
m/z	relative intensity
50.4477	7
52.4746	8
54.3708	7
56.0504	16
57.0343	9
58.0296	8
60.0453	259
61.0292	15
61.0486	9
68.0503	31
69.0345	15
70.0659	11
72.0452	712
73.0292	15
73.0486	55
74.0608	10
81.0343	16
82.0724	8
84.0452	398
85.0293	426
85.0424	9
85.0485	50
86.0608	12
88.0765	11
88.3224	7
91.0398	15
96.0451	37
97.0292	133
97.0487	9
97.6685	8
98.0608	126
98.9849	999
99.0447	16
99.0641	12
102.0557	14
108.045	49
109.029	33
114.0556	33
115.0395	12
116.0656	8
116.9955	12
119.4421	7
126.0555	132
127.0396	183
127.059	17
128.0432	7
140.1178	9
144.0661	167
145.05	103
145.0692	41
154.5867	8
160.3784	9
162.0767	431
163.0802	100
166.0175	15
170.0124	11
182.0122	14
188.1283	18
200.1289	9
206.0126	19
224.023	70
225.0264	21
226.8946	13
231.9	10
232.901	13
233.901	13
236.8787	36
237.8795	20
238.8788	14
242.0337	662
243.037	199
244.0288	45
244.0388	18
256.8889	16
260.8962	14
