Mass spectrum: Cysteic acid; LC-ESI-ITFT; MS2; CE: 10;  [M+H]+
Name: Cysteic acid
Class: Organic acids and derivatives; Carboxylic acids and derivatives; Amino acids, peptides, and analogues
Formula: C3H7NO5S
Exact mass: 169.00449
SMILES: NC(CS(O)(=O)=O)C(O)=O
InChI: InChI=1S/C3H7NO5S/c4-2(3(5)6)1-10(7,8)9/h2H,1,4H2,(H,5,6)(H,7,8,9)
Instrument: Thermo Scientific Q-Exactive Focus
Instrument type: LC-ESI-ITFT
Ms type: MS2
Ion mode: POSITIVE
Ionization: ESI
Collision energy: 10
Column name: Acquity CSHC18
Retention time: 0.348 min
Base peak: 170.01176
Precursor m/z: 170.01176
Precursor type: [M+H]+
m/z	relative intensity
90.872	1
105.9959	63
105.9976	1
124.0064	999
128.9507	1
133.5892	1
146.9612	1
165.7242	1
170.0116	130
170.0962	3
