Mass spectrum: SPHINGANINE; LC-ESI-QFT; MS2; CE: 30eV;  [M+H]+
Name: SPHINGANINE
Class: NA
Formula: C18H39NO2
Exact mass: 301.29808
SMILES: CCCCCCCCCCCCCCC[C@@H](O)[C@@H](N)CO
InChI: InChI=1S/C18H39NO2/c1-2-3-4-5-6-7-8-9-10-11-12-13-14-15-18(21)17(19)16-20/h17-18,20-21H,2-16,19H2,1H3/t17-,18+/m0/s1
Instrument: Q-Exactive Orbitrap, Thermo Scientfic; Ultimate 3000 HPLC, Thermo Scientfic
Instrument type: LC-ESI-QFT
Ms type: MS2
Ion mode: POSITIVE
Ionization: ESI
Collision energy: 30eV
Column name: Acquity CSHC18
Retention time: 12.127 min
Base peak: 302.3054
Precursor m/z: 302.3054
Precursor type: [M+H]+
Precursor intensity: 131
m/z	relative intensity
50.2229	1
52.3853	1
52.7459	1
52.8159	1
53.4774	1
54.6439	1
55.055	28
56.0502	8
57.0706	26
60.0451	847
61.0484	3
61.7154	1
62.6486	1
64.7427	1
67.0549	80
69.0705	59
70.0658	16
71.0498	9
71.0862	25
73.2907	1
74.0606	3
77.0808	1
81.0705	122
81.2327	1
82.7189	1
83.0861	85
83.4454	1
84.0814	1
85.0653	3
85.1018	15
88.3214	1
88.6766	1
95.086	173
96.0893	6
97.1017	77
100.7485	1
109.1016	95
110.1047	1
111.1172	27
123.1171	34
125.1326	7
137.1326	11
179.3399	2
185.1235	1
188.7349	1
226.4102	1
240.2687	41
241.271	2
254.2843	206
255.2685	2
255.2878	14
266.2843	164
267.269	3
267.2874	8
284.2949	999
285.2984	57
301.1414	9
301.996	1
302.1446	44
302.3056	65
303.308	2
