Mass spectrum: Quercetin-3-O-sophoroside; LC-ESI-QTOF; MS2; CE: 50eV;  [M-H]-
Name: Quercetin-3-O-sophoroside
Class: Flavonol
Formula: C27H30O17
Exact mass: 626.1483
SMILES: C1=CC(=C(C=C1C2=C(C(=O)C3=C(C=C(C=C3O2)O)O)OC4C(C(C(C(O4)CO)O)O)OC5C(C(C(C(O5)CO)O)O)O)O)O
InChI: InChI=1S/C27H30O17/c28-6-14-17(34)20(37)22(39)26(41-14)44-25-21(38)18(35)15(7-29)42-27(25)43-24-19(36)16-12(33)4-9(30)5-13(16)40-23(24)8-1-2-10(31)11(32)3-8/h1-5,14-15,17-18,20-22,25-35,37-39H,6-7H2
Instrument: TIMS-TOF Pro, Bruker Daltonik; Elute UHPLC System, Bruker Daltonik
Instrument type: LC-ESI-QTOF
Ms type: MS2
Ion mode: NEGATIVE
Ionization: ESI
Collision energy: 50eV
Column name: Acquity CSHC18
Retention time: 4.610 min
Base peak: 625.1305
Precursor m/z: 625.1305
Precursor type: [M-H]-
Precursor intensity: 237188.9
m/z	relative intensity
89.0219	1
151.0008	6
164.0087	2
166.6829	1
178.9961	7
179.9974	1
231.4161	1
237.3785	1
255.0253	1
256.0259	1
271.0209	4
297.026	1
298.7841	1
299.2421	2
300.0473	18
301.0504	5
302.0279	1
305.3692	1
307.9287	1
310.8574	1
316.3973	1
319.9833	1
342.8397	1
348.4974	1
372.9268	1
445.0689	1
463.077	1
479.6483	1
623.1098	1
624.5294	1
624.6339	1
624.7626	1
624.9856	1
625.1305	999
625.2488	1
625.3572	1
625.5333	2
