Mass spectrum: Harmine; LC-ESI-QTOF; MS2; CE: 15;  [M-H]-
Name: Harmine
Class: NA
Formula: C13H12N2O
Exact mass: 212.0950
SMILES: CC1=NC=CC2=C1NC3=C2C=CC(=C3)OC
InChI: InChI=1S/C13H12N2O/c1-8-13-11(5-6-14-8)10-4-3-9(16-2)7-12(10)15-13/h3-7,15H,1-2H3
Instrument: Bruker MicrOTOF-Q
Instrument type: LC-ESI-QTOF
Ms type: MS2
Ion mode: NEGATIVE
Ionization: ESI
Collision energy: 15
Column name: Acquity CSHC18
Retention time: NA
Base peak: 211.0877
Precursor m/z: 211.0877
Precursor type: [M-H]-
m/z	relative intensity
168.0689	114
169.073	11
183.0586	3
195.292	30
196.3112	999
197.0669	851
197.5679	3
198.0683	17
211.087	216
212.0896	29
