Mass spectrum: ASPARTATE; LC-ESI-QTOF; MS2; CE: 10;  [M+H]+
Name: ASPARTATE
Class: NA
Formula: C4H7NO4
Exact mass: 133.0375
SMILES: N[C@@H](CC(O)=O)C(O)=O
InChI: InChI=1S/C4H7NO4/c5-2(4(8)9)1-3(6)7/h2H,1,5H2,(H,6,7)(H,8,9)/t2-/m0/s1
Instrument: Agilent 6530Â Q-TOF LC/MS
Instrument type: LC-ESI-QTOF
Ms type: MS2
Ion mode: POSITIVE
Ionization: ESI
Collision energy: 10
Column name: NA
Retention time: 0.200 min
Base peak: 134.04480
Precursor m/z: 134.04480
Precursor type: [M+H]+
Precursor intensity: 114.5
m/z	relative intensity
43.018	19
46.0296	40
64.9266	43
70.0272	49
74.0229	65
88.0382	99
102.0863	227
105.953	249
116.0316	357
134.0393	999
