Mass spectrum: DMAPP; LC-ESI-QTOF; MS2; CE: -10, -35, -60V;  [M-H]-
Name: DMAPP
Class: NA
Formula: C5H12O7P2
Exact mass: 246.0058
SMILES: CC(=CCOP(=O)(O)OP(=O)(O)O)C
InChI: InChI=1S/C5H12O7P2/c1-5(2)3-4-11-14(9,10)12-13(6,7)8/h3H,4H2,1-2H3,(H,9,10)(H2,6,7,8)
Instrument: TripleToF 5600; Sciex
Instrument type: LC-ESI-QTOF
Ms type: MS2
Ion mode: NEGATIVE
Ionization: ESI
Collision energy: -10, -35, -60V
Column name: Acquity CSHC18
Retention time: 13.729 min
Base peak: 245.0015
Precursor m/z: 245.0015
Precursor type: [M-H]-
Precursor intensity: 121210.8
m/z	relative intensity
78.9595	942
156.1153	4
158.9252	63
226.9905	44
242.1636	28
242.179	43
243.1289	11
244.2153	11
245.0012	999
