Mass spectrum: 2-cyclohexen-1-one; APCI-ITFT; MS2; CE: 35 CID;  [M+H]+
Name: 2-cyclohexen-1-one
Class: NA
Formula: C6H8O
Exact mass: 96.05751
SMILES: C1CC=CC(=O)C1
InChI: InChI=1S/C6H8O/c7-6-4-2-1-3-5-6/h2,4H,1,3,5H2
Instrument: Orbitrap Elite
Instrument type: APCI-ITFT
Ms type: MS2
Ion mode: POSITIVE
Ionization: APCI
Collision energy: 35 CID
Column name: Acquity CSHC18
Retention time: 0.100 min
Base peak: 97.06413
Precursor m/z: 97.06413
Precursor type: [M+H]+
Precursor intensity: 571294200
m/z	relative intensity
77.0382	4
79.0538	62
95.0489	6
97.0499	2
97.0644	999
