Mass spectrum: Cysteic acid; LC-ESI-ITFT; MS2; CE: 40;  [M+H]+
Name: Cysteic acid
Class: Organic acids and derivatives; Carboxylic acids and derivatives; Amino acids, peptides, and analogues
Formula: C3H7NO5S
Exact mass: 169.00449
SMILES: NC(CS(O)(=O)=O)C(O)=O
InChI: InChI=1S/C3H7NO5S/c4-2(3(5)6)1-10(7,8)9/h2H,1,4H2,(H,5,6)(H,7,8,9)
Instrument: Thermo Scientific Q-Exactive Focus
Instrument type: LC-ESI-ITFT
Ms type: MS2
Ion mode: POSITIVE
Ionization: ESI
Collision energy: 40
Column name: Acquity CSHC18
Retention time: 1.463 min
Base peak: 170.01176
Precursor m/z: 170.01176
Precursor type: [M+H]+
m/z	relative intensity
52.2697	75
55.9349	86
62.6849	70
87.9585	76
98.83	71
105.9958	999
107.5229	67
136.8709	73
142.8627	77
147.7381	73
