Mass spectrum: 5-AMINOPENTANOATE; LC-ESI-QTOF; MS2; CE: 10;  [M+H]+
Name: 5-AMINOPENTANOATE
Class: NA
Formula: C5H11NO2
Exact mass: 117.07898
SMILES: NCCCCC(O)=O
InChI: InChI=1S/C5H11NO2/c6-4-2-1-3-5(7)8/h1-4,6H2,(H,7,8)
Instrument: Agilent 6530Â Q-TOF LC/MS
Instrument type: LC-ESI-QTOF
Ms type: MS2
Ion mode: POSITIVE
Ionization: ESI
Collision energy: 10
Column name: NA
Retention time: 0.200 min
Base peak: 118.08893
Precursor m/z: 118.08893
Precursor type: [M+H]+
Precursor intensity: 72.5
m/z	relative intensity
55.0721	117
56.0632	124
57.0351	165
58.0808	176
59.0831	390
72.0809	393
83.0523	597
100.0841	628
101.0755	651
118.117	999
