Mass spectrum: Baicalin; LC-ESI-QTOF; MS2; CE: 50eV;  [M-H]-
Name: Baicalin
Class: Flavone
Formula: C21H18O11
Exact mass: 446.0849
SMILES: C1=CC=C(C=C1)C2=CC(=O)C3=C(C(=C(C=C3O2)OC4C(C(C(C(O4)C(=O)O)O)O)O)O)O
InChI: InChI=1S/C21H18O11/c22-9-6-10(8-4-2-1-3-5-8)30-11-7-12(14(23)15(24)13(9)11)31-21-18(27)16(25)17(26)19(32-21)20(28)29/h1-7,16-19,21,23-27H,(H,28,29)
Instrument: TIMS-TOF Pro, Bruker Daltonik; Elute UHPLC System, Bruker Daltonik
Instrument type: LC-ESI-QTOF
Ms type: MS2
Ion mode: NEGATIVE
Ionization: ESI
Collision energy: 50eV
Column name: Acquity CSHC18
Retention time: 6.438 min
Base peak: 445.0722
Precursor m/z: 445.0722
Precursor type: [M-H]-
Precursor intensity: 46854.55
m/z	relative intensity
21.4768	4
44.9976	24
49.0082	8
51.0231	17
57.0334	20
59.0127	128
61.5515	6
67.0179	12
68.9956	4
70.0038	4
71.0126	99
72.0167	6
75.0069	13
75.9122	6
83.0126	11
84.0198	15
85.0287	119
85.5996	3
87.0072	74
87.8564	3
89.0234	44
89.715	5
94.0035	5
95.0121	58
95.8901	4
98.1201	6
99.0077	80
100.0096	6
101.0244	4
101.6562	5
103.0023	23
105.4652	3
111.006	18
113.0219	203
113.2835	3
114.0248	14
115.0034	32
116.0083	7
117.0175	48
118.0209	5
120.7064	7
123.0056	9
124.0097	10
129.0159	10
130.8419	3
134.8124	6
136.9868	55
137.9889	9
140.0711	7
141.0675	25
141.81	8
143.0482	9
144.0494	6
145.0276	23
146.0567	9
148.0106	9
151.0531	11
152.0974	5
153.0674	26
155.0292	7
155.9464	9
157.0115	31
159.0451	6
162.1783	4
164.9773	6
167.021	10
168.0005	9
169.0649	64
170.0628	7
171.0409	15
172.0445	4
175.0209	128
176.0257	14
177.0271	6
179.0467	19
185.0565	4
195.0393	16
196.0557	11
197.0571	30
198.0632	3
199.0408	10
201.0546	8
209.5784	4
213.0554	12
214.0554	4
221.738	5
223.036	19
224.0402	9
226.0555	6
232.1386	4
237.517	3
241.0438	17
242.0509	5
268.026	7
268.9421	999
269.2684	10
269.4178	7
269.5764	13
269.8101	8
269.8826	5
270.0432	586
270.3037	4
270.4424	3
270.5098	5
270.598	4
270.6706	4
270.7484	4
271.0469	44
271.1092	5
273.2448	3
352.0622	5
445.0689	81
