Mass spectrum: KYNURENATE; LC-ESI-QFT; MS2; CE: 30eV;  [M+H]+
Name: KYNURENATE
Class: NA
Formula: C10H7NO3
Exact mass: 189.04259
SMILES: OC(=O)C1=CC(=O)C2=CC=CC=C2N1
InChI: InChI=1S/C10H7NO3/c12-9-5-8(10(13)14)11-7-4-2-1-3-6(7)9/h1-5H,(H,11,12)(H,13,14)
Instrument: Q-Exactive Orbitrap, Thermo Scientfic; Ultimate 3000 HPLC, Thermo Scientfic
Instrument type: LC-ESI-QFT
Ms type: MS2
Ion mode: POSITIVE
Ionization: ESI
Collision energy: 30eV
Column name: Acquity CSHC18
Retention time: 5.121 min
Base peak: 190.0499
Precursor m/z: 190.0499
Precursor type: [M+H]+
Precursor intensity: 151
m/z	relative intensity
75.3733	1
78.3394	1
89.0389	2
95.7027	1
108.918	1
116.0497	4
121.9664	2
124.1877	1
131.987	1
132.2448	1
143.4361	1
144.0444	4
155.0026	1
162.0551	667
163.0584	26
164.0592	1
167.0552	2
167.693	1
172.0392	1
183.7267	1
190.05	999
191.0534	55
195.7043	1
