Mass spectrum: 1-deoxy-D-xylulose 5-phosphate; LC-ESI-QTOF; MS2; CE: -10, -35, -60V;  [M-H]-
Name: 1-deoxy-D-xylulose 5-phosphate
Class: NA
Formula: C5H11O7P
Exact mass: 214.0242
SMILES: CC(=O)C(C(COP(=O)(O)O)O)O
InChI: InChI=1S/C5H11O7P/c1-3(6)5(8)4(7)2-12-13(9,10)11/h4-5,7-8H,2H2,1H3,(H2,9,10,11)
Instrument: TripleToF 5600; Sciex
Instrument type: LC-ESI-QTOF
Ms type: MS2
Ion mode: NEGATIVE
Ionization: ESI
Collision energy: -10, -35, -60V
Column name: Acquity CSHC18
Retention time: 6.444 min
Base peak: 213.0174
Precursor m/z: 213.0174
Precursor type: [M-H]-
Precursor intensity: 180279.6
m/z	relative intensity
78.9594	999
96.9691	236
195.0066	19
213.0187	97
