Mass spectrum: Anthocyanin.A1; LC-ESI-ITFT; MS2; CE: 30;  [M]+
Name: Anthocyanin.A1
Class: NA
Formula: [C32H39O20]+
Exact mass: 743.2029
SMILES: c1(cc(c2c(c1)[o+]c(c(c2)O[C@H]1[C@@H]([C@H]([C@@H]([C@@H](O1)CO)O)O)O[C@@H]1[C@H]([C@H]([C@H](CO1)O)O)O)c1ccc(c(c1)O)O)O[C@H]1[C@@H]([C@H]([C@@H]([C@H](O1)CO)O)O)O)O
InChI: InChI=1S/C32H38O20/c33-7-19-22(40)24(42)27(45)31(50-19)48-17-5-11(35)4-16-12(17)6-18(28(47-16)10-1-2-13(36)14(37)3-10)49-32-29(25(43)23(41)20(8-34)51-32)52-30-26(44)21(39)15(38)9-46-30/h1-6,15,19-27,29-34,38-45H,7-9H2,(H2-,35,36,37)/p+1/t15-,19+,20-,21-,22+,23+,24-,25-,26-,27+,29+,30+,31+,32+/m0/s1
Instrument: q exactive focus thermo
Instrument type: LC-ESI-ITFT
Ms type: MS2
Ion mode: POSITIVE
Ionization: ESI
Collision energy: 30
Column name: Acquity CSHC18
Retention time: 4.127 min
Base peak: 743.1976
Precursor m/z: 743.1976
Precursor type: [M]+
Precursor intensity: 80043.56
m/z	relative intensity
102.9584	16
105.951	20
107.0045	20
107.9918	21
108.9992	23
110.0369	38
111.9981	39
113.0422	43
114.0462	60
117.9583	66
118.0758	83
119.0687	91
121.0442	97
123.9552	97
125.0129	100
128.057	102
129.0371	104
131.9622	105
132.0636	108
136.0518	110
140.0287	110
141.0603	113
142.9526	113
144.9741	118
145.0714	125
149.0126	158
149.9502	168
150.9629	193
158.986	248
161.0794	290
162.0723	367
167.045	379
181.9348	397
284.1793	664
439.204	999
