Mass spectrum: Isovalerylglycine; ESI-TOF; MS2; CE: 6.0000000;  [M+H]+
Name: Isovalerylglycine
Class: NA
Formula: C7H13NO3
Exact mass: 159.08954
SMILES: CC(C)CC(=O)NCC(O)=O
InChI: InChI=1S/C7H13NO3/c1-5(2)3-6(9)8-4-7(10)11/h5H,3-4H2,1-2H3,(H,8,9)(H,10,11)
Instrument: waters xevo g2 TOF
Instrument type: ESI-TOF
Ms type: MS2
Ion mode: POSITIVE
Ionization: ESI
Collision energy: 6.0000000
Column name: Acquity CSHC18
Retention time: 1.959 min
Base peak: 160.09754
Precursor m/z: 160.09754
Precursor type: [M+H]+
m/z	relative intensity
57.0711	5
76.0403	243
77.0438	5
85.0657	50
86.0691	2
114.0282	13
126.9724	5
133.0614	24
137.9882	19
142.0868	24
143.0907	2
145.0293	1
146.0133	1
155.012	4
160.0972	999
161.062	49
162.1026	10
163.0872	3
165.0644	1
166.1053	42
169.019	17
170.0229	3
173.0822	10
175.966	2
182.1347	625
183.0723	29
198.0443	19
199.0493	3
201.0453	16
202.0472	2
204.0609	8
210.0325	4
211.0531	11
212.0599	3
213.0818	3
216.0545	2
230.0685	7
239.1009	100
240.0807	5
244.0514	4
245.0368	3
251.1509	5
255.1162	4
260.0216	3
270.0971	2
271.0716	1
272.0451	2
273.0759	7
274.1369	4
282.1031	9
284.1198	2
285.1257	23
285.576	1
286.1279	2
289.0716	1
300.1138	11
302.0575	4
305.1572	8
316.0343	1
324.1156	3
326.1149	1
328.1085	13
329.108	12
330.1181	1
331.1157	17
332.1182	6
333.113	18
334.1149	2
335.1099	2
341.1563	24
342.1585	7
343.1451	82
344.1965	6
357.1336	365
358.1371	66
359.1365	12
361.1271	4
363.1576	12
364.6173	5
365.1234	2
368.1036	7
369.1056	1
370.1022	29
371.1082	12
372.0985	404
373.1036	210
374.1064	39
375.1063	81
376.1089	13
377.1031	27
378.1037	5
381.1003	2
388.1392	1
392.0812	2
392.5841	1
393.0822	1
395.0874	3
398.175	1
400.1036	1
414.1546	21
415.1566	3
429.1198	17
430.079	4
431.129	1
432.1408	2
442.1522	1
471.1775	3
500.2485	2
516.2233	75
517.2261	10
518.227	3
520.2155	1
524.216	2
529.1923	3
531.1881	60
532.1907	16
533.1954	3
534.1946	9
535.1978	1
536.1901	3
538.2026	1
551.172	3
553.1683	52
554.1707	21
555.1737	2
560.1849	1
569.1367	3
570.1416	10
571.1454	3
572.1422	4
586.1144	3
588.1207	1
601.1585	10
617.1354	5
705.2897	1
718.2622	1
728.224	5
729.2236	2
732.2479	1
734.2412	21
735.2421	14
736.2497	2
743.1883	8
744.1929	5
746.1967	2
748.194	1
750.2104	4
751.2121	2
791.2601	4
873.3208	1
902.2774	3
903.2764	1
915.3141	2
