Mass spectrum: Cotinine; LC-ESI-ITFT; MS2; CE: 40;  [M+H]+
Name: Cotinine
Class: Organoheterocyclic compounds; Pyridines and derivatives; Pyrrolidinylpyridines
Formula: C10H12N2O
Exact mass: 176.09496
SMILES: CN1C(CCC1=O)C1=CN=CC=C1
InChI: InChI=1S/C10H12N2O/c1-12-9(4-5-10(12)13)8-3-2-6-11-7-8/h2-3,6-7,9H,4-5H2,1H3
Instrument: Thermo Scientific Q-Exactive Focus
Instrument type: LC-ESI-ITFT
Ms type: MS2
Ion mode: POSITIVE
Ionization: ESI
Collision energy: 40
Column name: Acquity CSHC18
Retention time: 1.463 min
Base peak: 177.10223
Precursor m/z: 177.10223
Precursor type: [M+H]+
m/z	relative intensity
53.0392	62
68.05	6
70.0656	83
80.0499	999
91.0546	12
96.0447	21
98.0604	99
117.0575	17
118.0654	10
119.7175	2
