Mass spectrum: Thiamethoxam; LC-ESI-QTOF; MS2; CE: 20-40eV;  [M+H]+
Name: Thiamethoxam
Class: Pesticides
Formula: C8H10ClN5O3S
Exact mass: 291.0193
SMILES: CN1COCN(CC2=CN=C(Cl)S2)C1=NN(=O)=O
InChI: InChI=1S/C8H10ClN5O3S/c1-12-4-17-5-13(8(12)11-14(15)16)3-6-2-10-7(9)18-6/h2H,3-5H2,1H3
Instrument: Impact II, Bruker; Dionex 3000, Thermo Scientific
Instrument type: LC-ESI-QTOF
Ms type: MS2
Ion mode: POSITIVE
Ionization: ESI
Collision energy: 20-40eV
Column name: Acquity CSHC18
Retention time: 4.099 min
Base peak: 292.0269
Precursor m/z: 292.0269
Precursor type: [M+H]+
Precursor intensity: 23145.13
m/z	relative intensity
95.0729	229
97.032	265
98.0222	269
107.0657	318
109.0812	336
123.0974	373
134.9623	411
135.0909	651
137.0752	824
154.0316	940
165.0513	999
