Mass spectrum: Jasmonic acid; LC-ESI-ITFT; MS2; CE: 20;  [M-H]-
Name: Jasmonic acid
Class: Lipids and lipid-like molecules; Fatty Acyls; Lineolic acids and derivatives
Formula: C12H18O3
Exact mass: 210.12559
SMILES: CC\C=C/C[C@@H]1[C@@H](CC(O)=O)CCC1=O
InChI: InChI=1S/C12H18O3/c1-2-3-4-5-10-9(8-12(14)15)6-7-11(10)13/h3-4,9-10H,2,5-8H2,1H3,(H,14,15)/b4-3-/t9-,10-/m1/s1
Instrument: Thermo Scientific Q-Exactive Focus
Instrument type: LC-ESI-ITFT
Ms type: MS2
Ion mode: NEGATIVE
Ionization: ESI
Collision energy: 20
Column name: Acquity CSHC18
Retention time: 0.643 min
Base peak: 209.11832
Precursor m/z: 209.11832
Precursor type: [M-H]-
m/z	relative intensity
57.0334	3
59.0127	999
79.9249	2
81.0334	3
84.2054	2
104.8151	2
109.0647	13
165.1276	5
193.0836	2
214.6023	2
