Mass spectrum: Glucosamine 6-phosphate; ESI-TOF; MS2; CE: 6.0000000;  [M+H]+
Name: Glucosamine 6-phosphate
Class: NA
Formula: C6H14NO8P
Exact mass: 259.04570
SMILES: NC1C(O)OC(COP(O)(O)=O)C(O)C1O
InChI: InChI=1S/C6H14NO8P/c7-3-5(9)4(8)2(15-6(3)10)1-14-16(11,12)13/h2-6,8-10H,1,7H2,(H2,11,12,13)
Instrument: waters xevo g2 TOF
Instrument type: ESI-TOF
Ms type: MS2
Ion mode: POSITIVE
Ionization: ESI
Collision energy: 6.0000000
Column name: Acquity CSHC18
Retention time: 0.541 min
Base peak: 260.05370
Precursor m/z: 260.05370
Precursor type: [M+H]+
m/z	relative intensity
97.9695	8
98.0611	36
126.0557	999
130.0092	11
130.0094	16
138.9912	32
142.9918	39
144.0664	18
186.982	37
206.0219	821
207.0251	32
219.9705	21
224.0323	332
225.0336	9
235.9406	9
242.0441	222
243.0456	8
260.0539	340
519.1008	30
