Mass spectrum: PE(15:0/15:0); LC-ESI-QTOF; MS2; CE: 20 / 50;  [M+H]+
Name: PE(15:0/15:0)
Class: Phosphatidylethanolamines
Formula: C35H70NO8P
Exact mass: 663.48390
SMILES: [H][C@@](COC(=O)CCCCCCCCCCCCCC)(COP(O)(=O)OCCN)OC(=O)CCCCCCCCCCCCCC
InChI: InChI=1S/C35H70NO8P/c1-3-5-7-9-11-13-15-17-19-21-23-25-27-34(37)41-31-33(32-43-45(39,40)42-30-29-36)44-35(38)28-26-24-22-20-18-16-14-12-10-8-6-4-2/h33H,3-32,36H2,1-2H3,(H,39,40)/t33-/m1/s1
Instrument: impact II
Instrument type: LC-ESI-QTOF
Ms type: MS2
Ion mode: POSITIVE
Ionization: ESI
Collision energy: 20 / 50
Column name: Acquity CSHC18
Retention time: 7.735 min
Base peak: 664.48860
Precursor m/z: 664.48860
Precursor type: [M+H]+
m/z	relative intensity
523.4713	999
524.4742	173
664.4886	335
