Mass spectrum: HISTIDINOL; LC-ESI-QTOF; MS2; CE: 40;  [M+H]+
Name: HISTIDINOL
Class: NA
Formula: C6H11N3O
Exact mass: 141.09021
SMILES: N[C@H](CO)CC1=CN=CN1
InChI: InChI=1S/C6H11N3O/c7-5(3-10)1-6-2-8-4-9-6/h2,4-5,10H,1,3,7H2,(H,8,9)/t5-/m0/s1
Instrument: Agilent 6530Â Q-TOF LC/MS
Instrument type: LC-ESI-QTOF
Ms type: MS2
Ion mode: POSITIVE
Ionization: ESI
Collision energy: 40
Column name: NA
Retention time: 0.200 min
Base peak: 142.09759
Precursor m/z: 142.09759
Precursor type: [M+H]+
Precursor intensity: 144.5
m/z	relative intensity
41.0561	22
42.0518	23
43.0255	24
44.0503	25
52.0255	28
53.0515	29
54.075	29
54.2226	35
55.0529	37
55.9345	56
56.0631	62
56.9506	69
60.0627	88
67.0436	121
68.0705	122
69.048	126
72.9348	201
78.0354	208
80.0608	210
81.0794	213
81.3096	214
82.0758	232
83.0757	708
95.0853	999
