Mass spectrum: 17-phenyl trinor Prostaglandin F2-alpha diethyl amide; ESI-TOF; MS2; CE: 0.6458333;  [M+H]+
Name: 17-phenyl trinor Prostaglandin F2-alpha diethyl amide
Class: NA
Formula: C27H41NO4
Exact mass: 443.30356
SMILES: CCN(CC)C(CCC/C=C\C[C@@H]1[C@@H](/C=C/[C@@H](O)CCC2=CC=CC=C2)[C@H](O)C[C@@H]1O)=O
InChI: InChI=1S/C27H41NO4/c1-3-28(4-2)27(32)15-11-6-5-10-14-23-24(26(31)20-25(23)30)19-18-22(29)17-16-21-12-8-7-9-13-21/h5,7-10,12-13,18-19,22-26,29-31H,3-4,6,11,14-17,20H2,1-2H3/b10-5-,19-18+/t22-,23+,24+,25-,26+/m0/s1
Instrument: waters xevo g2 TOF
Instrument type: ESI-TOF
Ms type: MS2
Ion mode: POSITIVE
Ionization: ESI
Collision energy: 0.6458333
Column name: Acquity CSHC18
Retention time: 3.856 min
Base peak: 444.31156
Precursor m/z: 444.31156
Precursor type: [M+H]+
m/z	relative intensity
72.0806	75
74.0966	999
75.1001	25
79.0548	8
81.07	10
91.0558	246
93.0704	20
100.0765	469
105.0709	134
107.0861	14
115.0569	7
116.1076	7
117.0708	251
118.0742	20
128.1077	47
129.0705	94
130.0742	12
132.0902	17
133.1016	25
135.0804	5
142.1236	313
143.0864	185
145.1017	74
147.0817	17
155.0858	47
156.1389	217
157.1019	71
159.1171	24
161.0969	10
167.0854	29
168.1383	25
169.1017	76
170.1544	21
171.1169	113
175.1115	6
179.0857	23
180.0917	5
181.1021	46
182.1516	50
183.1173	34
184.1312	59
185.1319	34
186.1474	138
189.1311	4
193.1006	28
195.1165	45
197.1329	50
198.1394	12
206.1518	7
207.1175	78
208.1229	18
209.1317	22
210.1855	5
211.1331	7
213.1291	44
214.1279	5
217.0996	4
219.1168	17
222.1856	13
223.6223	2
224.2016	47
225.1275	19
226.1338	12
231.113	6
233.1326	44
234.1838	28
235.1475	17
246.1861	5
249.1732	61
250.1747	13
252.1992	5
260.2018	57
262.209	2
263.1825	11
264.1898	3
274.2145	8
275.18	319
276.1816	58
277.1899	5
280.0994	12
281.1851	11
286.2167	28
289.1951	52
291.1736	33
293.1865	7
299.1795	40
307.208	3
309.1875	3
310.2147	16
317.19	163
318.1949	38
336.2073	4
352.2637	11
354.2796	128
355.2816	22
357.0968	2
364.2641	110
365.2648	19
382.2749	132
383.2784	24
390.2799	406
391.284	117
392.2875	10
407.1901	28
408.2903	161
409.2943	45
410.2957	3
418.2069	47
419.2066	10
420.2218	95
421.2235	24
423.7651	4
426.3011	144
427.3041	43
428.3068	6
434.1779	28
436.1944	44
445.2732	10
446.2305	5
