Mass spectrum: Tomentosin-Cysteine; LC-ESI-ITFT; MS2; CE: 50eV;  [M+H]+
Name: Tomentosin-Cysteine
Class: Sesquiterpenelactone; Xanthanolide
Formula: C18H27NO5S
Exact mass: 369.1610
SMILES: O=C(O)[C@@H](N)CSCC1C(=O)O[C@@H]2CC(C)C(=CC[C@H]12)CCC(C)=O
InChI: InChI=1S/C18H27NO5S/c1-10-7-16-13(6-5-12(10)4-3-11(2)20)14(18(23)24-16)8-25-9-15(19)17(21)22/h5,10,13-16H,3-4,6-9,19H2,1-2H3,(H,21,22)/t10?,13-,14?,15+,16-/m1/s1
Instrument: Q Exactive Plus, ThermoFisher Scientific
Instrument type: LC-ESI-ITFT
Ms type: MS2
Ion mode: POSITIVE
Ionization: ESI
Collision energy: 50eV
Column name: Acquity CSHC18
Retention time: 5.287 min
Base peak: 370.1677
Precursor m/z: 370.1677
Precursor type: [M+H]+
Precursor intensity: 1022275000
m/z	relative intensity
68.6637	71
161.0907	81
171.0993	137
175.0808	147
177.101	195
189.0966	242
191.0973	326
203.1152	335
231.1121	999
