Mass spectrum: GALACTARATE; LC-ESI-QTOF; MS2; CE: 20;  [M-H]-
Name: GALACTARATE
Class: NA
Formula: C6H10O8
Exact mass: 210.03757
SMILES: O[C@@H]([C@@H](O)[C@H](O)C(O)=O)[C@@H](O)C(O)=O
InChI: InChI=1S/C6H10O8/c7-1(3(9)5(11)12)2(8)4(10)6(13)14/h1-4,7-10H,(H,11,12)(H,13,14)/t1-,2+,3+,4-
Instrument: Agilent 6530Â Q-TOF LC/MS
Instrument type: LC-ESI-QTOF
Ms type: MS2
Ion mode: NEGATIVE
Ionization: ESI
Collision energy: 20
Column name: NA
Retention time: 0.200 min
Base peak: 209.02700
Precursor m/z: 209.02700
Precursor type: [M-H]-
Precursor intensity: 146
m/z	relative intensity
41.0031	126
43.025	158
44.9994	205
55.0239	220
57.0355	234
59.0245	263
71.0253	295
72.9961	347
75.0112	357
85.0431	683
89.0257	823
133.0139	999
