Mass spectrum: UROCANATE; LC-ESI-QTOF; MS2; CE: 40;  [M-H]-
Name: UROCANATE
Class: NA
Formula: C6H6N2O2
Exact mass: 138.04293
SMILES: OC(=O)\C=C\C1=CNC=N1
InChI: InChI=1S/C6H6N2O2/c9-6(10)2-1-5-3-7-4-8-5/h1-4H,(H,7,8)(H,9,10)/b2-1+
Instrument: Agilent 6530Â Q-TOF LC/MS
Instrument type: LC-ESI-QTOF
Ms type: MS2
Ion mode: NEGATIVE
Ionization: ESI
Collision energy: 40
Column name: NA
Retention time: 0.200 min
Base peak: 137.03893
Precursor m/z: 137.03893
Precursor type: [M-H]-
Precursor intensity: 103
m/z	relative intensity
40.0341	147
41.0234	197
50.0173	218
63.017	219
64.0294	356
65.0359	373
66.0456	444
67.0372	636
91.0375	844
93.0593	999
