Mass spectrum: N-Decanoyl-L-homoserine lactone; LC-ESI-ITFT; MS2; CE: 30;  [M+H]+
Name: N-Decanoyl-L-homoserine lactone
Class: NA
Formula: C14H25NO3
Exact mass: 255.18344
SMILES: CCCCCCCCCC(=O)N[C@H]1CCOC1=O
InChI: InChI=1S/C14H25NO3/c1-2-3-4-5-6-7-8-9-13(16)15-12-10-11-18-14(12)17/h12H,2-11H2,1H3,(H,15,16)/t12-/m0/s1
Instrument: Thermo Scientific Q-Exactive Focus
Instrument type: LC-ESI-ITFT
Ms type: MS2
Ion mode: POSITIVE
Ionization: ESI
Collision energy: 30
Column name: Acquity CSHC18
Retention time: 0.917 min
Base peak: 256.19073
Precursor m/z: 256.19073
Precursor type: [M+H]+
m/z	relative intensity
56.05	255
57.0704	999
67.0547	207
71.0859	816
74.0241	239
74.0604	667
81.0702	357
85.1015	279
95.0858	395
102.0552	570
