Mass spectrum: Erioflorin; LC-ESI-ITFT; MS2; CE: 50eV;  [M+H]+
Name: Erioflorin
Class: Sesquiterpenelactone; Heliangolide
Formula: C19H24O6
Exact mass: 348.1573
SMILES: C/C/1=C\[C@@H]2[C@@H]([C@@H](C[C@@]3([C@H](O3)C[C@@H]1O)C)OC(=O)C(=C)C)C(=C)C(=O)O2
InChI: InChI=1S/C19H24O6/c1-9(2)17(21)24-14-8-19(5)15(25-19)7-12(20)10(3)6-13-16(14)11(4)18(22)23-13/h6,12-16,20H,1,4,7-8H2,2-3,5H3/b10-6+/t12-,13+,14+,15+,16-,19+/m0/s1
Instrument: Q Exactive Plus, ThermoFisher Scientific
Instrument type: LC-ESI-ITFT
Ms type: MS2
Ion mode: POSITIVE
Ionization: ESI
Collision energy: 50eV
Column name: Acquity CSHC18
Retention time: 5.987 min
Base peak: 349.1646
Precursor m/z: 349.1646
Precursor type: [M+H]+
Precursor intensity: 40879190
m/z	relative intensity
58.6674	58
62.9406	60
67.0552	52
67.5253	51
69.0342	76
69.1622	305
74.4851	49
77.2226	63
79.0548	52
91.0548	103
93.0704	108
95.0497	999
97.065	224
97.4379	135
97.9811	50
98.6849	48
105.071	54
110.6949	50
117.0705	323
119.0856	98
121.0647	69
126.6452	51
129.0707	53
131.0855	52
145.0647	64
145.1011	61
149.0612	62
159.7975	46
171.1152	81
173.0961	82
177.7519	55
181.1025	51
199.1111	55
217.5095	52
252.0887	53
268.755	54
275.0479	55
