Mass spectrum: Creatinine; LC-ESI-ITFT; MS2; CE: 60;  [M+H]+
Name: Creatinine
Class: Organic acids and derivatives; Carboxylic acids and derivatives; Amino acids, peptides, and analogues
Formula: C4H7N3O
Exact mass: 113.05891
SMILES: CN1CC(=O)NC1=N
InChI: InChI=1S/C4H7N3O/c1-7-2-3(8)6-4(7)5/h2H2,1H3,(H2,5,6,8)
Instrument: Thermo Scientific Q-Exactive Focus
Instrument type: LC-ESI-ITFT
Ms type: MS2
Ion mode: POSITIVE
Ionization: ESI
Collision energy: 60
Column name: Acquity CSHC18
Retention time: 1.352 min
Base peak: 114.06619
Precursor m/z: 114.06619
Precursor type: [M+H]+
m/z	relative intensity
52.4854	776
57.1408	818
73.7911	840
74.9409	788
77.1144	780
95.3104	787
100.5763	841
106.8097	999
124.3054	847
127.1376	996
