Mass spectrum: p-Coumaroylagmatine; LC-ESI-QTOF; MS2; CE: 50eV;  [M+H]+
Name: p-Coumaroylagmatine
Class: Hydroxycinnamic acid amide
Formula: C14H20N4O2
Exact mass: 276.1586
SMILES: C1=CC(=CC=C1/C=C/C(=O)NCCCCN=C(N)N)O
InChI: InChI=1S/C14H20N4O2/c15-14(16)18-10-2-1-9-17-13(20)8-5-11-3-6-12(19)7-4-11/h3-8,19H,1-2,9-10H2,(H,17,20)(H4,15,16,18)/b8-5+
Instrument: TIMS-TOF Pro, Bruker Daltonik; Elute UHPLC System, Bruker Daltonik
Instrument type: LC-ESI-QTOF
Ms type: MS2
Ion mode: POSITIVE
Ionization: ESI
Collision energy: 50eV
Column name: Acquity CSHC18
Retention time: 2.856 min
Base peak: 277.1646
Precursor m/z: 277.1646
Precursor type: [M+H]+
Precursor intensity: 46778.89
m/z	relative intensity
43.0293	6
52.7053	3
65.0219	2
65.0424	5
72.0804	9
91.053	152
92.0565	7
112.2028	6
114.1015	145
115.0866	8
118.9481	4
119.0485	152
120.0512	7
121.0546	2
131.1294	39
147.0234	12
147.0427	999
147.3872	5
148.0468	68
149.0465	2
217.1313	29
218.1166	44
219.1183	12
235.1413	17
260.1359	56
261.14	7
277.1461	19
