Mass spectrum: NICOTINAMIDE HYPOXANTHINE DINUCLEOTIDE; LC-ESI-QFT; MS2; CE: 30eV;  [M-H]-
Name: NICOTINAMIDE HYPOXANTHINE DINUCLEOTIDE
Class: NA
Formula: C21H26N6O15P2
Exact mass: 664.09314
SMILES: O=P([O-])(OP(O)(OCC1C(O)C(O)C(N2C=NC3=C2NC=NC3=O)O1)=O)OCC(O4)C(O)C(O)C4[N+]5=CC=CC(C(N)=O)=C5
InChI: InChI=1S/C21H26N6O15P2/c22-17(32)9-2-1-3-26(4-9)20-15(30)13(28)10(40-20)5-38-43(34,35)42-44(36,37)39-6-11-14(29)16(31)21(41-11)27-8-25-12-18(27)23-7-24-19(12)33/h1-4,7-8,10-11,13-16,20-21,28-31H,5-6H2,(H4-,22,23,24,32,33,34,35,36,37)
Instrument: Q-Exactive Orbitrap, Thermo Scientfic; Ultimate 3000 HPLC, Thermo Scientfic
Instrument type: LC-ESI-QFT
Ms type: MS2
Ion mode: NEGATIVE
Ionization: ESI
Collision energy: 30eV
Column name: Acquity CSHC18
Retention time: 0.797 min
Base peak: 663.0859
Precursor m/z: 663.0859
Precursor type: [M-H]-
Precursor intensity: 150
m/z	relative intensity
50.0271	38
50.3212	36
50.857	35
51.1042	34
51.4243	39
54.7976	42
69.0403	41
73.5147	47
78.9574	592
79.421	43
80.9085	53
83.5959	52
90.4758	44
94.3556	42
96.9679	90
110.3886	44
135.0297	312
139.8443	43
156.7042	51
158.9238	392
175.7283	48
211.001	65
238.5452	53
258.5397	56
272.9569	892
329.0286	999
340.5952	49
347.0402	319
385.1117	47
408.9666	37
408.9952	456
427.0059	356
443.125	52
455.21	51
461.6203	52
513.8743	53
541.0378	267
645.2657	57
