Mass spectrum: Homo-L-arginine; ESI-TOF; MS2; CE: 6.0000000;  [M+H]+
Name: Homo-L-arginine
Class: NA
Formula: C7H16N4O2
Exact mass: 188.12733
SMILES: NC(CCCCNC(N)=N)C(O)=O
InChI: InChI=1S/C7H16N4O2/c8-5(6(12)13)3-1-2-4-11-7(9)10/h5H,1-4,8H2,(H,12,13)(H4,9,10,11)
Instrument: waters xevo g2 TOF
Instrument type: ESI-TOF
Ms type: MS2
Ion mode: POSITIVE
Ionization: ESI
Collision energy: 6.0000000
Column name: Acquity CSHC18
Retention time: 0.488 min
Base peak: 189.13533
Precursor m/z: 189.13533
Precursor type: [M+H]+
m/z	relative intensity
84.0813	39
102.1278	24
109.0762	13
113.0791	11
114.1025	32
126.1027	116
127.0876	14
129.1021	10
130.0866	279
131.0899	20
131.93	24
133.9277	9
137.988	149
144.1134	999
145.1162	74
146.1189	3
147.1129	29
155.0808	9
160.989	20
162.9891	6
171.1247	7
172.1084	480
173.1109	40
174.955	7
176.9522	2
186.9805	6
189.135	427
190.1368	555
191.0226	53
