Mass spectrum: β-Isoalantolactone-Cysteine; LC-ESI-ITFT; MS2; CE: 50eV;  [M+H]+
Name: β-Isoalantolactone-Cysteine
Class: Sesquiterpenelactone; Eudesmanolide
Formula: C18H27NO4S
Exact mass: 353.1661
SMILES: O=C(O)[C@@H](N)CSCC1C(=O)O[C@@H]2C[C@@]3(C)CCCC(=C)C3C[C@H]12
InChI: InChI=1S/C18H27NO4S/c1-10-4-3-5-18(2)7-15-11(6-13(10)18)12(17(22)23-15)8-24-9-14(19)16(20)21/h11-15H,1,3-9,19H2,2H3,(H,20,21)/t11-,12?,13?,14+,15-,18-/m1/s1
Instrument: Q Exactive Plus, ThermoFisher Scientific
Instrument type: LC-ESI-ITFT
Ms type: MS2
Ion mode: POSITIVE
Ionization: ESI
Collision energy: 50eV
Column name: Acquity CSHC18
Retention time: 7.116 min
Base peak: 354.1728
Precursor m/z: 354.1728
Precursor type: [M+H]+
Precursor intensity: 5427671000
m/z	relative intensity
88.0309	166
119.0674	200
133.0823	212
137.0504	214
159.0992	243
163.0664	255
173.1147	303
177.083	502
189.1453	999
