Mass spectrum: Sucrose; ESI-TOF; MS2; CE: 6.0000000;  [M+H]+
Name: Sucrose
Class: NA
Formula: C12H22O11
Exact mass: 342.11621
SMILES: OCC1OC(OC2(CO)OC(CO)C(O)C2O)C(O)C(O)C1O
InChI: InChI=1S/C12H22O11/c13-1-4-6(16)8(18)9(19)11(21-4)23-12(3-15)10(20)7(17)5(2-14)22-12/h4-11,13-20H,1-3H2
Instrument: waters xevo g2 TOF
Instrument type: ESI-TOF
Ms type: MS2
Ion mode: POSITIVE
Ionization: ESI
Collision energy: 6.0000000
Column name: Acquity CSHC18
Retention time: 0.567 min
Base peak: 343.12421
Precursor m/z: 343.12421
Precursor type: [M+H]+
m/z	relative intensity
85.029	238
97.0285	108
99.0444	45
109.0282	36
110.9751	2
127.0392	726
128.0423	31
137.9878	781
145.0499	273
163.0598	84
169.9671	2
172.9768	531
173.9605	2
180.0864	54
186.9691	2
198.9687	2
198.9693	2
203.0522	2
233.9848	2
275.9931	999
276.9984	133
289.0926	75
294.0028	40
306.0044	93
307.0114	38
325.1127	349
326.1187	44
343.1251	77
360.1505	227
362.0976	51
365.1064	494
366.1102	66
381.0783	21
396.0344	268
397.0419	78
414.0482	61
558.0888	71
576.0999	102
577.1034	31
707.2167	36
707.2199	75
738.1528	96
739.1624	60
