Mass spectrum: Metoprolol; ESI-TOF; MS2; CE: 0.6458333;  [M+H]+
Name: Metoprolol
Class: NA
Formula: C15H25NO3
Exact mass: 267.18344
SMILES: COCCC1=CC=C(OCC(O)CNC(C)C)C=C1
InChI: InChI=1S/C15H25NO3/c1-12(2)16-10-14(17)11-19-15-6-4-13(5-7-15)8-9-18-3/h4-7,12,14,16-17H,8-11H2,1-3H3
Instrument: waters xevo g2 TOF
Instrument type: ESI-TOF
Ms type: MS2
Ion mode: POSITIVE
Ionization: ESI
Collision energy: 0.6458333
Column name: Acquity CSHC18
Retention time: 1.942 min
Base peak: 268.19144
Precursor m/z: 268.19144
Precursor type: [M+H]+
m/z	relative intensity
56.0509	23
72.0819	375
73.085	18
74.0611	469
75.0645	18
77.0396	5
79.0555	9
84.0815	15
86.0974	28
91.0551	59
93.0703	14
96.0818	4
98.0972	608
99.1006	45
100.1122	10
101.941	4
103.0552	39
104.0571	3
105.0705	90
106.0741	8
107.0858	6
115.0543	15
116.1077	999
117.111	49
118.1137	3
119.086	24
120.0878	3
121.0655	557
122.0692	50
128.0615	2
129.0658	25
131.0859	83
132.0895	14
133.0656	577
134.0688	62
135.0811	50
136.0396	2
141.0707	65
142.0742	5
144.0249	55
145.0624	8
147.0811	46
148.0768	130
149.0604	7
150.0943	5
153.0916	7
158.0974	5
159.0812	363
160.0848	72
161.0965	28
162.0999	4
163.112	33
164.1162	3
165.0916	156
166.0949	17
175.1107	3
176.1079	170
177.0921	111
178.0948	12
179.107	38
180.1108	2
191.1074	337
192.1109	73
193.1143	4
194.1185	105
195.1205	11
201.1282	4
218.1543	80
219.1583	21
226.1447	123
227.1486	16
250.1808	42
268.3339	497
269.2659	220
