Mass spectrum: Methylimidazoleacetic acid; ESI-TOF; MS2; CE: 0.6458333;  [M+H]+
Name: Methylimidazoleacetic acid
Class: NA
Formula: C6H8N2O2
Exact mass: 140.05858
SMILES: CN1C=NC(CC(O)=O)=C1
InChI: InChI=1S/C6H8N2O2/c1-8-3-5(7-4-8)2-6(9)10/h3-4H,2H2,1H3,(H,9,10)
Instrument: waters xevo g2 TOF
Instrument type: ESI-TOF
Ms type: MS2
Ion mode: POSITIVE
Ionization: ESI
Collision energy: 0.6458333
Column name: Acquity CSHC18
Retention time: 0.548 min
Base peak: 141.06658
Precursor m/z: 141.06658
Precursor type: [M+H]+
m/z	relative intensity
68.0502	20
95.0611	999
96.0642	80
113.9642	63
131.931	7
141.0662	15
496.0785	7
