Mass spectrum: H-Val-Ile-OH; LC-ESI-QTOF; MS2; CE: 15.00;  [M+H]+
Name: H-Val-Ile-OH
Class: NA
Formula: C11H22N2O3
Exact mass: 230.1630
SMILES: CCC(C)C(C(=O)O)NC(=O)C(C(C)C)N
InChI: InChI=1S/C11H22N2O3/c1-5-7(4)9(11(15)16)13-10(14)8(12)6(2)3/h6-9H,5,12H2,1-4H3,(H,13,14)(H,15,16)
Instrument: Bruker MicrOTOF-Q
Instrument type: LC-ESI-QTOF
Ms type: MS2
Ion mode: POSITIVE
Ionization: ESI
Collision energy: 15.00
Column name: Acquity CSHC18
Retention time: NA
Base peak: 231.1703
Precursor m/z: 231.1703
Precursor type: [M+H]+
m/z	relative intensity
185.17	999
186.16	411
190.41	322
193.93	298
231.17	926
232.17	322
275.89	209
