Mass spectrum: 5-Hydroxy-L-tryptophan; LC-ESI-ITFT; MS2; CE: 100;  [M-H]-
Name: 5-Hydroxy-L-tryptophan
Class: Organoheterocyclic compounds; Indoles and derivatives; Tryptamines and derivatives
Formula: C11H12N2O3
Exact mass: 220.08479
SMILES: N[C@@H](CC1=CNC2=C1C=C(O)C=C2)C(O)=O
InChI: InChI=1S/C11H12N2O3/c12-9(11(15)16)3-6-5-13-10-2-1-7(14)4-8(6)10/h1-2,4-5,9,13-14H,3,12H2,(H,15,16)/t9-/m0/s1
Instrument: Thermo Scientific Q-Exactive Focus
Instrument type: LC-ESI-ITFT
Ms type: MS2
Ion mode: NEGATIVE
Ionization: ESI
Collision energy: 100
Column name: Acquity CSHC18
Retention time: 2.586 min
Base peak: 219.07751
Precursor m/z: 219.07751
Precursor type: [M-H]-
m/z	relative intensity
75.3548	228
92.5153	999
103.7168	214
136.6446	226
142.072	205
146.5576	253
160.4005	239
176.3198	234
195.4778	213
232.5321	209
