Mass spectrum: 3,4-Dihydroxybenzoic acid; LC-ESI-ITFT; MS2; CE: 0.3;  [M-H]-
Name: 3,4-Dihydroxybenzoic acid
Class: phenolic acids
Formula: C7H6O4
Exact mass: 154.0266
SMILES: C1=CC(=C(C=C1C(=O)O)O)O
InChI: InChI=1S/C7H6O4/c8-5-2-1-4(7(10)11)3-6(5)9/h1-3,8-9H,(H,10,11)
Instrument: LTQ-Orbitrap XL hybrid mass spectrometer (Thermo Scientific)
Instrument type: LC-ESI-ITFT
Ms type: MS2
Ion mode: NEGATIVE
Ionization: ESI
Collision energy: 0.3
Column name: Acquity CSHC18
Retention time: 2.509 min
Base peak: 153.0195
Precursor m/z: 153.0195
Precursor type: [M-H]-
Precursor intensity: 5269058
m/z	relative intensity
62.529	4
64.4944	4
67.4868	3
67.5745	4
73.9783	5
74.264	3
86.383	4
93.9713	4
96.9658	4
104.0723	5
105.8228	4
106.3664	4
107.8044	4
108.5365	7
109.0299	999
109.042	4
115.2181	4
119.5019	4
122.1254	4
124.7873	4
124.9201	5
124.9865	4
127.3442	4
129.528	4
132.9314	6
134.857	4
136.9834	4
142.1262	5
144.2131	5
152.1354	4
153.0196	409
