Mass spectrum: MANNITOL; LC-ESI-QFT; MS2; CE: 30eV;  [M+H]+
Name: MANNITOL
Class: NA
Formula: C6H14O6
Exact mass: 182.07904
SMILES: OC[C@@H](O)[C@@H](O)[C@H](O)[C@H](O)CO
InChI: InChI=1S/C6H14O6/c7-1-3(9)5(11)6(12)4(10)2-8/h3-12H,1-2H2/t3-,4-,5-,6-/m1/s1
Instrument: Q-Exactive Orbitrap, Thermo Scientfic; Ultimate 3000 HPLC, Thermo Scientfic
Instrument type: LC-ESI-QFT
Ms type: MS2
Ion mode: POSITIVE
Ionization: ESI
Collision energy: 30eV
Column name: Acquity CSHC18
Retention time: 0.588 min
Base peak: 183.0863
Precursor m/z: 183.0863
Precursor type: [M+H]+
Precursor intensity: 176
m/z	relative intensity
52.4809	1
52.6588	1
53.0392	1
54.0263	1
54.5751	1
55.0186	8
55.0549	13
55.8891	1
55.935	2
56.9429	34
57.0342	58
57.0356	1
60.3884	1
61.029	53
62.9553	1
67.0549	2
67.9725	1
69.0341	416
69.9676	1
70.0374	10
71.0497	20
72.9376	45
73.029	20
74.9533	2
75.0446	3
81.034	19
83.0496	102
83.0829	1
84.0531	3
85.0289	86
86.0324	1
87.0445	55
90.948	23
91.0394	10
96.938	3
96.9612	2
97.9691	114
98.9696	2
99.0444	73
100.9319	3
103.0393	27
105.0339	3
108.9586	2
111.0443	74
111.9683	2
113.9639	999
114.9484	15
114.9641	8
114.9673	12
115.9794	16
116.9597	1
117.0549	10
118.9428	12
123.8099	1
127.9798	4
128.8432	2
129.0547	72
130.058	2
131.9742	347
132.9587	35
136.9531	2
137.964	7
141.9586	275
142.9621	2
147.0651	55
149.9849	2
155.9746	69
156.975	2
156.9822	3
159.9458	7
159.9691	277
160.9717	2
165.0758	10
177.9563	46
177.9798	8
182.9029	3
204.9793	2
