Mass spectrum: SORBITOL; LC-ESI-QTOF; MS2; CE: 40;  [M-H]-
Name: SORBITOL
Class: NA
Formula: C6H14O6
Exact mass: 182.07904
SMILES: OC[C@H](O)[C@@H](O)[C@H](O)[C@H](O)CO
InChI: InChI=1S/C6H14O6/c7-1-3(9)5(11)6(12)4(10)2-8/h3-12H,1-2H2/t3-,4+,5-,6-/m1/s1
Instrument: Agilent 6530Â Q-TOF LC/MS
Instrument type: LC-ESI-QTOF
Ms type: MS2
Ion mode: NEGATIVE
Ionization: ESI
Collision energy: 40
Column name: NA
Retention time: 0.200 min
Base peak: 181.06905
Precursor m/z: 181.06905
Precursor type: [M-H]-
Precursor intensity: 115
m/z	relative intensity
41.0206	142
43.0317	194
45.0024	212
53.0022	343
55.0272	578
57.0187	690
59.0346	708
71.0292	999
