Mass spectrum: D-glucose 6-phosphate; LC-ESI-QTOF; MS2; CE: 15.00;  [M+Na]+
Name: D-glucose 6-phosphate
Class: NA
Formula: C6H13O9P
Exact mass: 260.0297
SMILES: C(C(C(C(C(C=O)O)O)O)O)OP(=O)(O)O
InChI: InChI=1S/C6H13O9P/c7-1-3(8)5(10)6(11)4(9)2-15-16(12,13)14/h1,3-6,8-11H,2H2,(H2,12,13,14)
Instrument: Bruker MicrOTOF-Q
Instrument type: LC-ESI-QTOF
Ms type: MS2
Ion mode: POSITIVE
Ionization: ESI
Collision energy: 15.00
Column name: Acquity CSHC18
Retention time: NA
Base peak: 283.0189
Precursor m/z: 283.0189
Precursor type: [M+Na]+
m/z	relative intensity
120.971	18
144.9676	2
149.022	3
154.0529	2
159.3641	3
162.9863	14
167.031	73
168.0329	7
174.9692	9
185.038	44
192.9891	21
194.9967	2
203.0521	139
204.0548	16
204.9879	15
207.0793	2
207.7949	2
222.999	92
224.0015	3
228.9869	21
229.0712	4
246.7604	3
246.827	2
246.9977	319
248.0001	20
248.9968	3
265.0092	278
266.022	10
282.8317	3
283.0187	999
283.2595	5
283.4055	5
283.5048	3
283.6594	2
284.024	78
288.2561	2
288.5152	2
288.6198	3
394.4697	2
526.9975	4
