Mass spectrum: XANTHURENATE; LC-ESI-QFT; MS2; CE: 30eV;  [M+H]+
Name: XANTHURENATE
Class: NA
Formula: C10H7NO4
Exact mass: 205.03751
SMILES: OC(=O)C1=NC2=C(O)C=CC=C2C(O)=C1
InChI: InChI=1S/C10H7NO4/c12-7-3-1-2-5-8(13)4-6(10(14)15)11-9(5)7/h1-4,12H,(H,11,13)(H,14,15)
Instrument: Q-Exactive Orbitrap, Thermo Scientfic; Ultimate 3000 HPLC, Thermo Scientfic
Instrument type: LC-ESI-QFT
Ms type: MS2
Ion mode: POSITIVE
Ionization: ESI
Collision energy: 30eV
Column name: Acquity CSHC18
Retention time: 4.477 min
Base peak: 206.0448
Precursor m/z: 206.0448
Precursor type: [M+H]+
Precursor intensity: 106
m/z	relative intensity
50.4931	2
50.5436	2
51.5441	2
52.4596	3
54.5597	2
59.9193	2
61.4446	2
63.3456	2
72.0815	3
75.1776	2
87.0446	7
93.0361	3
96.2254	3
120.6275	3
131.0311	3
132.0448	12
149.0237	4
178.0501	551
179.0533	23
191.5305	3
203.2595	2
206.0452	999
207.0486	54
222.5413	3
