Mass spectrum: N-Feruloyl Tyramine; LC-ESI-ITFT; MS2; CE: 35eV;  [M+H]+
Name: N-Feruloyl Tyramine
Class: Phenolamide
Formula: C18H19NO4
Exact mass: 313.1314
SMILES: COC1=C(C=CC(=C1)C=CC(=O)NCCC2=CC=C(C=C2)O)O
InChI: InChI=1S/C18H19NO4/c1-23-17-12-14(4-8-16(17)21)5-9-18(22)19-11-10-13-2-6-15(20)7-3-13/h2-9,12,20-21H,10-11H2,1H3,(H,19,22)
Instrument: LTQ Orbitrap XL, Thermo Scientfic; Dionex Ultimate 300
Instrument type: LC-ESI-ITFT
Ms type: MS2
Ion mode: POSITIVE
Ionization: ESI
Collision energy: 35eV
Column name: Lichrospher C18 Column 250*4 5um, Interchim
Retention time: 51.89 min
Base peak: 314.1377
Precursor m/z: 314.1377
Precursor type: [M+H]+
m/z	relative intensity
89.0181	1
90.9752	1
116.9851	16
120.9476	6
144.9308	139
149.0908	2
164.007	1
176.9511	999
177.907	1
193.9668	2
198.1818	2
209.1546	1
278.1121	1
282.1566	1
