Mass spectrum: N-ACETYLNEURAMINATE; LC-ESI-QTOF; MS2; CE: 20;  [M-H]-
Name: N-ACETYLNEURAMINATE
Class: NA
Formula: C11H19NO9
Exact mass: 309.10598
SMILES: CC(=O)N[C@@H]1[C@@H](O)C[C@](O)(O[C@H]1[C@H](O)[C@H](O)CO)C(O)=O
InChI: InChI=1S/C11H19NO9/c1-4(14)12-7-5(15)2-11(20,10(18)19)21-9(7)8(17)6(16)3-13/h5-9,13,15-17,20H,2-3H2,1H3,(H,12,14)(H,18,19)/t5-,6+,7+,8+,9+,11-/m0/s1
Instrument: Agilent 6530Â Q-TOF LC/MS
Instrument type: LC-ESI-QTOF
Ms type: MS2
Ion mode: NEGATIVE
Ionization: ESI
Collision energy: 20
Column name: NA
Retention time: 0.200 min
Base peak: 308.09972
Precursor m/z: 308.09972
Precursor type: [M-H]-
Precursor intensity: 160
m/z	relative intensity
43.0178	115
59.0142	125
87.0231	205
98.0709	396
170.0469	999
