Mass spectrum: Ginkgolide J; LC-ESI-QFT; MS2; CE: 15,30,45 (NCE);  [M+NH4]+
Name: Ginkgolide J
Class: NA
Formula: C20H24O10
Exact mass: 424.1369
SMILES: CC1C(=O)OC2CC34C5OC(=O)C3(OC3OC(=O)C(O)C43C(C5O)C(C)(C)C)C12O
InChI: InChI=1S/C20H24O10/c1-6-12(23)27-7-5-17-11-8(21)9(16(2,3)4)18(17)10(22)13(24)29-15(18)30-20(17,14(25)28-11)19(6,7)26/h6-11,15,21-22,26H,5H2,1-4H3
Instrument: QE Focus, Thermo Scientfic; UPLC I-Class, Waters
Instrument type: LC-ESI-QFT
Ms type: MS2
Ion mode: POSITIVE
Ionization: ESI
Collision energy: 15,30,45 (NCE)
Column name: Acquity CSHC18
Retention time: 1.514 min
Base peak: 442.1703
Precursor m/z: 442.1703
Precursor type: [M+NH4]+
Precursor intensity: 678094800
m/z	relative intensity
57.0707	33
58.5594	12
65.2767	11
65.4752	11
80.5942	12
110.1476	13
120.368	13
160.1007	17
179.0338	21
189.0545	20
203.0694	28
207.0641	17
215.0711	17
235.0608	58
263.0549	26
305.1381	25
309.0607	212
335.1492	57
351.1422	30
361.1244	22
379.136	21
392.3798	15
425.1441	173
442.1702	999
