Mass spectrum: TauroCholic Acid; LC-ESI-QTOF; MS2; CE: 30;  [M-2H2O+H]+
Name: TauroCholic Acid
Class: NA
Formula: C26H45NO7S
Exact mass: 515.29167
SMILES: CC(CCC(=O)NCCS(=O)(=O)O)C1CCC2C1(C(CC3C2C(CC4C3(CCC(C4)O)C)O)O)C
InChI: InChI=1S/C26H45NO7S/c1-15(4-7-23(31)27-10-11-35(32,33)34)18-5-6-19-24-20(14-22(30)26(18,19)3)25(2)9-8-17(28)12-16(25)13-21(24)29/h15-22,24,28-30H,4-14H2,1-3H3,(H,27,31)(H,32,33,34)
Instrument: impact II
Instrument type: LC-ESI-QTOF
Ms type: MS2
Ion mode: POSITIVE
Ionization: ESI
Collision energy: 30
Column name: Acquity CSHC18
Retention time: 1.792 min
Base peak: 480.27830
Precursor m/z: 480.27830
Precursor type: [M-2H2O+H]+
m/z	relative intensity
208.5985	261
337.7549	968
462.7699	999
