Mass spectrum: XYLITOL; LC-ESI-QTOF; MS2; CE: 10;  [M-H]-
Name: XYLITOL
Class: NA
Formula: C5H12O5
Exact mass: 152.06847
SMILES: OC[C@H](O)C(O)[C@H](O)CO
InChI: InChI=1S/C5H12O5/c6-1-3(8)5(10)4(9)2-7/h3-10H,1-2H2/t3-,4+,5?
Instrument: Agilent 6530Â Q-TOF LC/MS
Instrument type: LC-ESI-QTOF
Ms type: MS2
Ion mode: NEGATIVE
Ionization: ESI
Collision energy: 10
Column name: NA
Retention time: 0.200 min
Base peak: 151.06348
Precursor m/z: 151.06348
Precursor type: [M-H]-
Precursor intensity: 162
m/z	relative intensity
41.0032	148
43.0232	187
55.0196	224
59.0355	235
71.0276	258
73.0327	476
89.0363	562
101.0297	625
151.078	999
