Mass spectrum: cis-Aconitic acid; LC-ESI-QTOF; MS2; CE: 35.00;  [M+Na]+
Name: cis-Aconitic acid
Class: NA
Formula: C6H6O6
Exact mass: 174.0164
SMILES: C(C(=CC(=O)O)C(=O)O)C(=O)O
InChI: InChI=1S/C6H6O6/c7-4(8)1-3(6(11)12)2-5(9)10/h1H,2H2,(H,7,8)(H,9,10)(H,11,12)
Instrument: Bruker MicrOTOF-Q
Instrument type: LC-ESI-QTOF
Ms type: MS2
Ion mode: POSITIVE
Ionization: ESI
Collision energy: 35.00
Column name: Acquity CSHC18
Retention time: NA
Base peak: 197.0053
Precursor m/z: 197.0053
Precursor type: [M+Na]+
m/z	relative intensity
116.9323	999
120.9406	933
