Mass spectrum: 5-Hydroxy-2-methyl-1,4-naphthoquinone; LC-ESI-QTOF; MS2; CE: 15.00;  [M+H]+
Name: 5-Hydroxy-2-methyl-1,4-naphthoquinone
Class: NA
Formula: C11H8O3
Exact mass: 188.0473
SMILES: CC1=CC(=O)C2=C(C1=O)C=CC=C2O
InChI: InChI=1S/C11H8O3/c1-6-5-9(13)10-7(11(6)14)3-2-4-8(10)12/h2-5,12H,1H3
Instrument: Bruker MicrOTOF-Q
Instrument type: LC-ESI-QTOF
Ms type: MS2
Ion mode: POSITIVE
Ionization: ESI
Collision energy: 15.00
Column name: Acquity CSHC18
Retention time: NA
Base peak: 189.0546
Precursor m/z: 189.0546
Precursor type: [M+H]+
m/z	relative intensity
115.053	26
121.0264	278
122.0301	20
133.0633	141
134.0669	12
143.0479	80
144.0531	10
147.0419	12
161.059	880
162.0633	89
171.0433	91
172.0494	8
189.0545	999
190.0585	133
