Mass spectrum: 1-O-Galloyl-beta-D-glucose; LC-ESI-QTOF; MS2; CE: 50eV;  [M-H]-
Name: 1-O-Galloyl-beta-D-glucose
Class: Benzoic acid
Formula: C13H16O10
Exact mass: 332.0743
SMILES: C1=C(C=C(C(=C1O)O)O)C(=O)OC2C(C(C(C(O2)CO)O)O)O
InChI: InChI=1S/C13H16O10/c14-3-7-9(18)10(19)11(20)13(22-7)23-12(21)4-1-5(15)8(17)6(16)2-4/h1-2,7,9-11,13-20H,3H2
Instrument: TIMS-TOF Pro, Bruker Daltonik; Elute UHPLC System, Bruker Daltonik
Instrument type: LC-ESI-QTOF
Ms type: MS2
Ion mode: NEGATIVE
Ionization: ESI
Collision energy: 50eV
Column name: Acquity CSHC18
Retention time: 2.085 min
Base peak: 331.0593
Precursor m/z: 331.0593
Precursor type: [M-H]-
Precursor intensity: 39574.88
m/z	relative intensity
51.022	12
56.9966	7
59.0116	366
60.0151	6
62.6725	6
71.0115	41
78.0093	17
79.0166	31
85.026	21
89.0221	10
90.0217	5
95.0108	53
107.0111	70
119.0307	10
123.0061	126
124.0119	74
125.0201	125
126.0252	15
133.5454	5
150.9995	144
153.0154	8
166.9952	12
168.0013	12
169.0083	256
170.0121	17
211.0175	75
212.0242	7
223.0181	6
243.0318	7
271.0352	9
272.0433	24
313.0478	6
331.0564	999
