Mass spectrum: Rutin; LC-ESI-ITFT; MS2; CE: 35eV;  [M+H]+
Name: Rutin
Class: Flavonoid
Formula: C27H30O16
Exact mass: 610.1534
SMILES: CC1C(C(C(C(O1)OCC2C(C(C(C(O2)OC3=C(OC4=CC(=CC(=C4C3=O)O)O)C5=CC(=C(C=C5)O)O)O)O)O)O)O)O
InChI: InChI=1S/C27H30O16/c1-8-17(32)20(35)22(37)26(40-8)39-7-15-18(33)21(36)23(38)27(42-15)43-25-19(34)16-13(31)5-10(28)6-14(16)41-24(25)9-2-3-11(29)12(30)4-9/h2-6,8,15,17-18,20-23,26-33,35-38H,7H2,1H3
Instrument: LTQ Orbitrap XL, Thermo Scientfic; Dionex Ultimate 300
Instrument type: LC-ESI-ITFT
Ms type: MS2
Ion mode: POSITIVE
Ionization: ESI
Collision energy: 35eV
Column name: Lichrospher C18 Column 250*4 5um, Interchim
Retention time: 49.15 min
Base peak: 611.1606
Precursor m/z: 611.1606
Precursor type: [M+H]+
m/z	relative intensity
229.0087	2
257.0262	2
285.0373	1
302.9834	999
345.0478	3
447.0366	5
448.8727	11
464.8503	156
