Mass spectrum: N-Arachidonyldopamine; ESI-TOF; MS2; CE: 0.6458333;  [M+H]+
Name: N-Arachidonyldopamine
Class: NA
Formula: C28H41NO3
Exact mass: 439.30864
SMILES: CCCCC/C=C\C/C=C\C/C=C\C/C=C\CCCC(=O)NCCC1=CC(=C(C=C1)O)O
InChI: InChI=1S/C28H41NO3/c1-2-3-4-5-6-7-8-9-10-11-12-13-14-15-16-17-18-19-28(32)29-23-22-25-20-21-26(30)27(31)24-25/h6-7,9-10,12-13,15-16,20-21,24,30-31H,2-5,8,11,14,17-19,22-23H2,1H3,(H,29,32)/b7-6-,10-9-,13-12-,16-15-
Instrument: waters xevo g2 TOF
Instrument type: ESI-TOF
Ms type: MS2
Ion mode: POSITIVE
Ionization: ESI
Collision energy: 0.6458333
Column name: Acquity CSHC18
Retention time: 6.314 min
Base peak: 440.31664
Precursor m/z: 440.31664
Precursor type: [M+H]+
m/z	relative intensity
67.0557	20
79.0549	40
81.0709	87
91.0546	178
93.0703	102
95.085	116
105.0703	122
107.0859	96
109.1016	71
117.0704	47
119.0858	162
120.09	13
121.1015	150
123.0809	30
129.0705	33
131.0865	97
133.1018	196
135.0808	71
137.0966	943
138.0634	163
143.086	47
145.1011	78
147.1176	113
148.0513	15
149.0949	62
152.0708	660
153.0744	53
154.0866	999
155.0902	95
157.1017	70
158.0301	48
159.1163	36
161.0616	48
163.1482	35
171.117	113
173.1317	41
175.0788	70
177.1637	52
180.0651	38
185.1334	85
187.1485	19
189.1638	93
191.1796	44
199.147	33
201.163	33
203.1801	235
204.184	24
205.193	15
222.1129	46
236.1287	45
243.2221	40
245.2264	163
246.2292	32
250.1438	22
259.2428	56
264.1596	10
269.2263	198
270.2311	33
287.2371	323
288.1998	31
290.1757	16
302.1742	26
304.2274	16
316.2282	14
326.247	91
328.19	9
330.2055	7
342.2078	20
438.2993	173
439.3043	38
440.3158	761
441.3184	246
