Mass spectrum: N-3-hydroxy-isotetradecanoyl-nornicotine; LC-ESI-QTOF; MS2; CE: Ramped;  [M+H]+
Name: N-3-hydroxy-isotetradecanoyl-nornicotine
Class: Alkaloid
Formula: C23H38N2O2
Exact mass: 374.2933
SMILES: O=C(CC(O)CCCCCCCCC(C)C)N1CCC[C@H]1c1cnccc1
InChI: InChI=1S/C23H38N2O2/c1-19(2)11-7-5-3-4-6-8-13-21(26)17-23(27)25-16-10-14-22(25)20-12-9-15-24-18-20/h9,12,15,18-19,21-22,26H,3-8,10-11,13-14,16-17H2,1-2H3/t21?,22-/m0/s1
Instrument: Impact II qTOF
Instrument type: LC-ESI-QTOF
Ms type: MS2
Ion mode: POSITIVE
Ionization: ESI
Collision energy: Ramped
Column name: Acquity HSS T3 1.8uM 2.1x100mm Waters
Retention time: 5.65 min
Base peak: 375.3001
Precursor m/z: 375.3001
Precursor type: [M+H]+
m/z	relative intensity
130.0644	62
132.0801	183
147.0909	55
149.1066	544
173.1065	25
175.0858	215
339.2788	15
357.2896	999
375.3001	47
