Mass spectrum: Guanine; LC-ESI-ITFT; MS2; CE: 40;  [M-H]-
Name: Guanine
Class: Organoheterocyclic compounds; Imidazopyrimidines; Purines and purine derivatives
Formula: C5H5N5O
Exact mass: 151.04941
SMILES: NC1=NC(=O)C2=C(N1)N=CN2
InChI: InChI=1S/C5H5N5O/c6-5-9-3-2(4(11)10-5)7-1-8-3/h1H,(H4,6,7,8,9,10,11)
Instrument: Thermo Scientific Q-Exactive Focus
Instrument type: LC-ESI-ITFT
Ms type: MS2
Ion mode: NEGATIVE
Ionization: ESI
Collision energy: 40
Column name: Acquity CSHC18
Retention time: 1.479 min
Base peak: 150.04213
Precursor m/z: 150.04213
Precursor type: [M-H]-
m/z	relative intensity
54.5437	29
57.9746	32
65.9974	61
66.0086	999
92.5961	29
111.4471	29
111.5202	29
112.0413	33
130.3006	35
132.6124	36
