Mass spectrum: Diosmetin; LC-ESI-ITFT; MS2; CE: 45eV;  [M+H]+
Name: Diosmetin
Class: Flavonoid
Formula: C16H12O6
Exact mass: 300.0634
SMILES: COC1=C(C=C(C=C1)C2=CC(=O)C3=C(C=C(C=C3O2)O)O)O
InChI: InChI=1S/C16H12O6/c1-21-13-3-2-8(4-10(13)18)14-7-12(20)16-11(19)5-9(17)6-15(16)22-14/h2-7,17-19H,1H3
Instrument: LTQ Orbitrap XL, Thermo Scientfic; Dionex Ultimate 300
Instrument type: LC-ESI-ITFT
Ms type: MS2
Ion mode: POSITIVE
Ionization: ESI
Collision energy: 45eV
Column name: Alltima C18
Retention time: 17.14 min
Base peak: 301.0713
Precursor m/z: 301.0713
Precursor type: [M+H]+
m/z	relative intensity
149.0469	320
237.1034	158
257.2461	999
283.1906	520
