Mass spectrum: PURINE; LC-ESI-QTOF; MS2; CE: 40;  [M-H]-
Name: PURINE
Class: NA
Formula: C5H4N4
Exact mass: 120.04360
SMILES: N1C=NC2=C1C=NC=N2
InChI: InChI=1S/C5H4N4/c1-4-5(8-2-6-1)9-3-7-4/h1-3H,(H,6,7,8,9)
Instrument: Agilent 6530Â Q-TOF LC/MS
Instrument type: LC-ESI-QTOF
Ms type: MS2
Ion mode: NEGATIVE
Ionization: ESI
Collision energy: 40
Column name: NA
Retention time: 0.200 min
Base peak: 119.03454
Precursor m/z: 119.03454
Precursor type: [M-H]-
Precursor intensity: 178
m/z	relative intensity
41.0188	117
50.0029	175
64.0165	217
65.0254	220
66.0071	229
67.0291	266
90.0125	422
92.0287	811
119.0377	999
