Mass spectrum: Dehydrotomatine; LC-ESI-ITFT; MS2; CE: 35eV;  [M+H]+
Name: Dehydrotomatine
Class: Glyco-Alkaloid
Formula: C50H81NO21
Exact mass: 1031.5301
SMILES: CC1CCC2(C(C3C(O2)CC4C3(CCC5C4CC=C6C5(CCC(C6)OC7C(C(C(C(O7)CO)OC8C(C(C(C(O8)CO)O)OC9C(C(C(CO9)O)O)O)OC2C(C(C(C(O2)CO)O)O)O)O)O)C)C)C)NC1
InChI: InChI=1S/C50H81NO21/c1-20-7-12-50(51-15-20)21(2)32-28(72-50)14-26-24-6-5-22-13-23(8-10-48(22,3)25(24)9-11-49(26,32)4)65-45-40(63)37(60)41(31(18-54)68-45)69-47-43(71-46-39(62)36(59)34(57)29(16-52)66-46)42(35(58)30(17-53)67-47)70-44-38(61)33(56)27(55)19-64-44/h5,20-21,23-47,51-63H,6-19H2,1-4H3
Instrument: LTQ Orbitrap XL, Thermo Scientfic; Dionex Ultimate 300
Instrument type: LC-ESI-ITFT
Ms type: MS2
Ion mode: POSITIVE
Ionization: ESI
Collision energy: 35eV
Column name: Lichrospher C18 Column 250*4 5um, Interchim
Retention time: 62.98 min
Base peak: 1032.5400
Precursor m/z: 1032.5400
Precursor type: [M+H]+
m/z	relative intensity
294.9513	11
306.0019	2
321.2253	3
322.448	2
323.3207	1
324.7798	9
338.1539	1
342.928	1
360.3157	5
361.3272	1
364.3508	4
365.3981	1
366.2547	3
376.4556	26
378.2683	367
379.3563	35
380.1776	10
382.1503	2
383.2508	11
385.2293	4
386.2306	2
391.3009	1
396.2784	686
397.2045	22
397.8718	1
398.599	2
404.3616	1
406.1457	1
412.4009	6
414.3306	999
415.4012	16
416.2932	1
420.3787	1
424.214	5
426.4318	1
429.8837	2
433.3038	10
435.1452	4
438.3886	3
439.4635	1
448.9279	1
452.271	1
456.2883	6
468.1751	2
486.244	4
492.332	5
504.4048	1
510.2169	4
511.2602	3
516.0409	1
522.3669	1
523.4445	2
528.3381	6
539.7396	3
540.3594	29
544.5289	1
545.6726	4
546.3353	8
558.3051	518
559.1828	33
559.7958	3
570.8536	2
572.1453	2
576.3245	957
577.2833	18
580.281	2
583.982	3
586.3669	2
600.3954	5
612.1586	1
618.6908	2
626.6818	4
655.464	1
660.7266	2
663.6114	5
672.4181	2
673.6926	3
684.2798	6
686.3518	2
690.5106	17
697.419	4
702.1347	4
702.7559	2
706.5572	1
708.279	97
709.5367	1
720.331	98
721.348	21
738.3053	166
739.2477	16
780.5829	2
833.5748	1
836.1453	2
846.2596	2
848.4194	2
850.3279	5
852.382	799
853.5114	69
870.411	462
871.478	39
882.3832	616
883.5513	53
900.332	696
901.33	83
924.3822	7
925.2758	1
942.3601	15
943.4842	1
952.5773	1
954.1699	5
972.2502	1
996.61	8
997.7242	3
1000.6265	1
1013.9748	4
1014.576	105
1015.519	11
1032.542	3
