Mass spectrum: NICOTINATE; LC-ESI-QTOF; MS2; CE: 40;  [M-H]-
Name: NICOTINATE
Class: NA
Formula: C6H5NO2
Exact mass: 123.03203
SMILES: OC(=O)C1=CN=CC=C1
InChI: InChI=1S/C6H5NO2/c8-6(9)5-2-1-3-7-4-5/h1-4H,(H,8,9)
Instrument: Agilent 6530Â Q-TOF LC/MS
Instrument type: LC-ESI-QTOF
Ms type: MS2
Ion mode: NEGATIVE
Ionization: ESI
Collision energy: 40
Column name: NA
Retention time: 0.200 min
Base peak: 122.02629
Precursor m/z: 122.02629
Precursor type: [M-H]-
Precursor intensity: 173
m/z	relative intensity
40.0068	599
51.0245	671
78.0369	976
111.3037	999
