Mass spectrum: Glucobrassicin; LC-ESI-QTOF; MS2; CE: 15.00;  [M-C6H10O8S+H]+
Name: Glucobrassicin
Class: NA
Formula: C16H20N2O9S2
Exact mass: 448.0610
SMILES: C1=CC=C2C(=C1)C(=CN2)CC(=NOS(=O)(=O)O)SC3C(C(C(C(O3)CO)O)O)O
InChI: InChI=1S/C16H20N2O9S2/c19-7-11-13(20)14(21)15(22)16(26-11)28-12(18-27-29(23,24)25)5-8-6-17-10-4-2-1-3-9(8)10/h1-4,6,11,13-17,19-22H,5,7H2,(H,23,24,25)
Instrument: Bruker MicrOTOF-Q
Instrument type: LC-ESI-QTOF
Ms type: MS2
Ion mode: POSITIVE
Ionization: ESI
Collision energy: 15.00
Column name: Acquity CSHC18
Retention time: NA
Base peak: 207.0587
Precursor m/z: 207.0587
Precursor type: [M-C6H10O8S+H]+
m/z	relative intensity
117.0577	52
128.0502	42
130.0651	999
131.0689	89
132.0559	7
148.0258	12
149.0293	60
150.0291	21
155.0622	44
156.0696	100
157.058	3
157.0774	32
160.0216	14
162.0357	120
173.0287	532
174.0374	500
175.0398	29
175.0949	9
189.0477	20
190.0545	88
207.05	21
