Mass spectrum: 1,2-dimyristoyl-sn-glycero-3-phosphoethanolamine; ESI-TOF; MS2; CE: 6.0000000;  [M+H]+
Name: 1,2-dimyristoyl-sn-glycero-3-phosphoethanolamine
Class: NA
Formula: C33H66NO8P
Exact mass: 635.45260
SMILES: [H]C([H])([H])C([H])([H])C([H])([H])C([H])([H])C([H])([H])C([H])([H])C([H])([H])C([H])([H])C([H])([H])C([H])([H])C([H])([H])C([H])([H])C([H])([H])C(=O)OC([H])([H])C([H])(OC(=O)C([H])([H])C([H])([H])C([H])([H])C([H])([H])C([H])([H])C([H])([H])C([H])([H])C([H])([H])C([H])([H])C([H])([H])C([H])([H])C([H])([H])C([H])([H])[H])C([H])([H])OP(=O)([O-])OC([H])([H])C([H])([H])[N+]([H])([H])[H]
InChI: InChI=1S/C33H66NO8P/c1-3-5-7-9-11-13-15-17-19-21-23-25-32(35)39-29-31(30-41-43(37,38)40-28-27-34)42-33(36)26-24-22-20-18-16-14-12-10-8-6-4-2/h31H,3-30,34H2,1-2H3,(H,37,38)
Instrument: waters xevo g2 TOF
Instrument type: ESI-TOF
Ms type: MS2
Ion mode: POSITIVE
Ionization: ESI
Collision energy: 6.0000000
Column name: Acquity CSHC18
Retention time: 10.090 min
Base peak: 636.46060
Precursor m/z: 636.46060
Precursor type: [M+H]+
m/z	relative intensity
99.97	6
337.7081	155
338.2095	33
356.6802	5
403.1561	8
408.25	4
421.1683	1
480.1814	6
482.1799	3
495.4405	387
496.4439	138
497.4475	23
631.3646	173
632.3668	56
633.3698	7
636.459	999
637.4628	392
