Mass spectrum: CORTISOL; LC-ESI-QFT; MS2; CE: 30eV;  [M-H]-
Name: CORTISOL
Class: NA
Formula: C21H30O5
Exact mass: 362.20932
SMILES: [H][C@@]12CC[C@@](O)(C(=O)CO)[C@@]1(C)C[C@H](O)[C@@]1([H])[C@@]2([H])CCC2=CC(=O)CC[C@]12C
InChI: InChI=1S/C21H30O5/c1-19-7-5-13(23)9-12(19)3-4-14-15-6-8-21(26,17(25)11-22)20(15,2)10-16(24)18(14)19/h9,14-16,18,22,24,26H,3-8,10-11H2,1-2H3/t14-,15-,16-,18+,19-,20-,21+/m0/s1
Instrument: Q-Exactive Orbitrap, Thermo Scientfic; Ultimate 3000 HPLC, Thermo Scientfic
Instrument type: LC-ESI-QFT
Ms type: MS2
Ion mode: NEGATIVE
Ionization: ESI
Collision energy: 30eV
Column name: Acquity CSHC18
Retention time: 8.357 min
Base peak: 361.2021
Precursor m/z: 361.2021
Precursor type: [M-H]-
Precursor intensity: 155
m/z	relative intensity
50.4073	28
51.1852	22
51.9147	23
53.8612	24
56.7555	24
58.202	25
71.7469	30
95.062	33
96.9589	27
97.1244	30
100.3667	38
118.1209	32
125.0595	187
126.6707	38
178.1997	36
189.0916	135
234.4499	33
243.7355	33
246.9442	31
255.4609	37
276.1864	35
282.1268	177
288.341	33
289.6891	31
297.15	605
298.152	52
312.6393	31
315.1617	177
321.7607	35
325.2209	62
331.192	999
343.1906	54
360.7416	39
377.2266	33
