Mass spectrum: Quinidine; LC-ESI-ITFT; MS2; CE: 20;  [M+H]+
Name: Quinidine
Class: Alkaloids and derivatives; Cinchona alkaloids
Formula: C20H24N2O2
Exact mass: 324.18378
SMILES: [H][C@@]12CCN(C[C@@H]1C=C)[C@]([H])(C2)[C@@H](O)C1=C2C=C(OC)C=CC2=NC=C1
InChI: InChI=1S/C20H24N2O2/c1-3-13-12-22-9-7-14(13)10-19(22)20(23)16-6-8-21-18-5-4-15(24-2)11-17(16)18/h3-6,8,11,13-14,19-20,23H,1,7,9-10,12H2,2H3/t13-,14-,19+,20-/m0/s1
Instrument: Thermo Scientific Q-Exactive Focus
Instrument type: LC-ESI-ITFT
Ms type: MS2
Ion mode: POSITIVE
Ionization: ESI
Collision energy: 20
Column name: Acquity CSHC18
Retention time: 0.631 min
Base peak: 325.19104
Precursor m/z: 325.19104
Precursor type: [M+H]+
m/z	relative intensity
81.0703	15
110.0967	20
160.0757	45
166.1226	23
184.0757	38
198.0913	16
253.1334	29
264.1381	16
307.1803	97
325.1912	999
