Mass spectrum: S3:18(4,4,10); LC-ESI-QTOF; MS2; CE: -10,-35,-60V;  [M+FA-H]-
Name: S3:18(4,4,10)
Class: acyl sugar
Formula: C30H52O14
Exact mass: 636.3357
SMILES: O[C@H]1[C@@H](O[C@@]2(O[C@H](CO)[C@@H](O)[C@@H]2O)COC(CCCCCCCCC)=O)O[C@H](CO)[C@@H](OC(C(C)C)=O)[C@@H]1OC(C(C)C)=O
InChI: InChI=1S/C30H52O14/c1-6-7-8-9-10-11-12-13-21(33)39-16-30(26(36)22(34)19(14-31)43-30)44-29-23(35)25(42-28(38)18(4)5)24(20(15-32)40-29)41-27(37)17(2)3/h17-20,22-26,29,31-32,34-36H,6-16H2,1-5H3/t19-,20-,22-,23-,24-,25-,26+,29-,30+/m1/s1
Instrument: TripleToF5600, Sciex; Acquity, Waters
Instrument type: LC-ESI-QTOF
Ms type: MS2
Ion mode: NEGATIVE
Ionization: ESI
Collision energy: -10,-35,-60V
Column name: Acquity CSHC18
Retention time: 12.614 min
Base peak: 681.3367
Precursor m/z: 681.3367
Precursor type: [M+FA-H]-
Precursor intensity: 2515202
m/z	relative intensity
87.0283	33
101.0394	57
637.3255	217
671.3085	473
679.157	783
681.322	999
