Mass spectrum: D-Sucrose; LC-ESI-QTOF; MS2; CE: 19.88;  [M+Na]+
Name: D-Sucrose
Class: NA
Formula: C12H22O11
Exact mass: 342.1162
SMILES: C(C1C(C(C(C(O1)OC2(C(C(C(O2)CO)O)O)CO)O)O)O)O
InChI: InChI=1S/C12H22O11/c13-1-4-6(16)8(18)9(19)11(21-4)23-12(3-15)10(20)7(17)5(2-14)22-12/h4-11,13-20H,1-3H2
Instrument: Bruker MicrOTOF-Q
Instrument type: LC-ESI-QTOF
Ms type: MS2
Ion mode: POSITIVE
Ionization: ESI
Collision energy: 19.88
Column name: Acquity CSHC18
Retention time: NA
Base peak: 365.1054
Precursor m/z: 365.1054
Precursor type: [M+Na]+
m/z	relative intensity
121.01	3
126.59	3
145.02	4
159.02	3
185.04	334
186.04	20
187.04	6
192.04	3
199.02	8
200.03	3
202.06	2
203.05	999
203.21	5
203.35	3
203.42	5
204.05	93
205.07	8
211.02	5
221.07	3
229.02	3
231.04	4
241.02	4
247.03	4
289.05	3
363.44	3
364.4	2
364.69	3
364.84	4
364.94	3
365.1	597
365.71	4
365.84	3
366.11	83
366.83	5
367.11	22
394.97	4
