Mass spectrum: ADENOSINE 2',3'-CYCLIC PHOSPHATE; LC-ESI-QFT; MS2; CE: 30eV;  [M-H]-
Name: ADENOSINE 2',3'-CYCLIC PHOSPHATE
Class: NA
Formula: C10H12N5O6P
Exact mass: 329.05252
SMILES: NC1=NC=NC2=C1N=CN2C1OC(CO)C2OP(O)(=O)OC12
InChI: InChI=1S/C10H12N5O6P/c11-8-5-9(13-2-12-8)15(3-14-5)10-7-6(4(1-16)19-10)20-22(17,18)21-7/h2-4,6-7,10,16H,1H2,(H,17,18)(H2,11,12,13)
Instrument: Q-Exactive Orbitrap, Thermo Scientfic; Ultimate 3000 HPLC, Thermo Scientfic
Instrument type: LC-ESI-QFT
Ms type: MS2
Ion mode: NEGATIVE
Ionization: ESI
Collision energy: 30eV
Column name: Acquity CSHC18
Retention time: 0.811 min
Base peak: 328.0452
Precursor m/z: 328.0452
Precursor type: [M-H]-
Precursor intensity: 161
m/z	relative intensity
55.2586	17
59.95	17
60.8935	21
64.8532	18
65.2134	20
77.4908	19
78.9573	30
92.0235	33
92.8255	18
97.5814	22
107.0346	135
117.0189	24
135.0428	327
135.049	999
136.9084	103
138.9054	268
156.3111	21
190.7299	21
192.9899	81
209.9802	21
263.3859	22
270.5507	21
328.0457	110
333.4758	20
