Mass spectrum: ADP-glucose; LC-ESI-QTOF; MS2; CE: 37.64;  [M-H]-
Name: ADP-glucose
Class: NA
Formula: C16H25N5O15P2
Exact mass: 589.0822
SMILES: C1=NC(=C2C(=N1)N(C=N2)C3C(C(C(O3)COP(=O)(O)OP(=O)(O)OC4C(C(C(C(O4)CO)O)O)O)O)O)N
InChI: InChI=1S/C16H25N5O15P2/c17-13-7-14(19-3-18-13)21(4-20-7)15-11(26)9(24)6(33-15)2-32-37(28,29)36-38(30,31)35-16-12(27)10(25)8(23)5(1-22)34-16/h3-6,8-12,15-16,22-27H,1-2H2,(H,28,29)(H,30,31)(H2,17,18,19)
Instrument: Bruker MicrOTOF-Q
Instrument type: LC-ESI-QTOF
Ms type: MS2
Ion mode: NEGATIVE
Ionization: ESI
Collision energy: 37.64
Column name: Acquity CSHC18
Retention time: NA
Base peak: 588.0778
Precursor m/z: 588.0778
Precursor type: [M-H]-
m/z	relative intensity
78.9613	216
96.964	206
96.9727	409
134.0356	176
134.0461	288
158.9271	363
176.935	176
211.0044	249
223.0044	186
241.0117	999
242.0193	315
272.957	769
320.9798	341
322.8494	157
328.043	293
346.0622	409
408.011	256
