Mass spectrum: L-Tyrosine; LC-ESI-ITFT; MS2; CE: 20;  [M+H]+
Name: L-Tyrosine
Class: Organic acids and derivatives; Carboxylic acids and derivatives; Amino acids, peptides, and analogues
Formula: C9H11NO3
Exact mass: 181.07389
SMILES: N[C@@H](CC1=CC=C(O)C=C1)C(O)=O
InChI: InChI=1S/C9H11NO3/c10-8(9(12)13)5-6-1-3-7(11)4-2-6/h1-4,8,11H,5,10H2,(H,12,13)/t8-/m0/s1
Instrument: Thermo Scientific Q-Exactive Focus
Instrument type: LC-ESI-ITFT
Ms type: MS2
Ion mode: POSITIVE
Ionization: ESI
Collision energy: 20
Column name: Acquity CSHC18
Retention time: 0.630 min
Base peak: 182.08118
Precursor m/z: 182.08118
Precursor type: [M+H]+
m/z	relative intensity
91.0546	813
95.0495	315
103.0545	29
117.9906	39
118.0654	34
119.0493	796
123.0442	804
136.0011	33
136.0757	999
147.044	132
