Mass spectrum: N-(3-INDOLylacetyl)-L-alanine; LC-ESI-QTOF; MS2; CE: -10, -35, -60V;  [M-H]-
Name: N-(3-INDOLylacetyl)-L-alanine
Class: NA
Formula: C13H14N2O3
Exact mass: 246.1004
SMILES: CC(C(=O)O)NC(=O)CC1=CNC2=CC=CC=C21
InChI: InChI=1S/C13H14N2O3/c1-8(13(17)18)15-12(16)6-9-7-14-11-5-3-2-4-10(9)11/h2-5,7-8,14H,6H2,1H3,(H,15,16)(H,17,18)
Instrument: TripleToF 5600; Sciex
Instrument type: LC-ESI-QTOF
Ms type: MS2
Ion mode: NEGATIVE
Ionization: ESI
Collision energy: -10, -35, -60V
Column name: Acquity CSHC18
Retention time: 12.513 min
Base peak: 245.0956
Precursor m/z: 245.0956
Precursor type: [M-H]-
Precursor intensity: 1302188
m/z	relative intensity
88.041	999
89.0426	9
116.0514	8
128.0507	90
146.0606	8
156.0462	137
245.0955	133
