Mass spectrum: Barbituric acid; LC-ESI-ITFT; MS2; CE: 100;  [M+H]+
Name: Barbituric acid
Class: Organoheterocyclic compounds; Diazines; Pyrimidines and pyrimidine derivatives
Formula: C4H4N2O3
Exact mass: 128.02219
SMILES: OC1=NC(=O)N=C(O)C1
InChI: InChI=1S/C4H4N2O3/c7-2-1-3(8)6-4(9)5-2/h1H2,(H2,5,6,7,8,9)
Instrument: Thermo Scientific Q-Exactive Focus
Instrument type: LC-ESI-ITFT
Ms type: MS2
Ion mode: POSITIVE
Ionization: ESI
Collision energy: 100
Column name: Acquity CSHC18
Retention time: 2.570 min
Base peak: 129.02946
Precursor m/z: 129.02946
Precursor type: [M+H]+
m/z	relative intensity
53.6237	128
53.9396	999
67.2615	135
72.4293	140
97.0828	128
110.7286	141
112.4093	127
128.0478	127
139.7509	152
141.1671	128
