Mass spectrum: Quercetin-3,7,3',4'-tetramethyl ether; LC-ESI-QTOF; MS2; CE: 50eV;  [M+H]+
Name: Quercetin-3,7,3',4'-tetramethyl ether
Class: Flavonol
Formula: C19H18O7
Exact mass: 358.1053
SMILES: COC1=C(C=C(C=C1)C2=C(C(=O)C3=C(C=C(C=C3O2)OC)O)OC)OC
InChI: InChI=1S/C19H18O7/c1-22-11-8-12(20)16-15(9-11)26-18(19(25-4)17(16)21)10-5-6-13(23-2)14(7-10)24-3/h5-9,20H,1-4H3
Instrument: TIMS-TOF Pro, Bruker Daltonik; Elute UHPLC System, Bruker Daltonik
Instrument type: LC-ESI-QTOF
Ms type: MS2
Ion mode: POSITIVE
Ionization: ESI
Collision energy: 50eV
Column name: Acquity CSHC18
Retention time: 10.514 min
Base peak: 359.1099
Precursor m/z: 359.1099
Precursor type: [M+H]+
Precursor intensity: 1875060
m/z	relative intensity
50.9116	2
107.0494	4
120.9998	3
141.4288	1
147.0383	2
163.0308	2
167.0338	9
179.0347	3
186.0245	2
197.0196	2
201.0307	2
228.0398	3
230.0545	9
243.0649	5
255.0682	8
257.0408	4
258.0542	10
259.0543	4
267.9914	2
272.0612	2
273.075	12
283.0623	9
285.0786	5
286.0438	7
297.034	4
299.0554	5
300.0633	9
301.0673	24
309.796	1
312.1743	1
315.0852	3
327.0507	1
328.0615	3
329.0652	33
330.0733	4
334.8989	2
343.081	5
344.0457	8
344.0898	151
345.0882	23
346.0911	5
358.9987	3
359.0648	22
359.1129	999
