Mass spectrum: Umbelliferone; LC-ESI-ITFT; MS2; CE: 60;  [M-H]-
Name: Umbelliferone
Class: Phenylpropanoids and polyketides; Coumarins and derivatives; Hydroxycoumarins
Formula: C9H6O3
Exact mass: 162.03169
SMILES: OC1=CC2=C(C=C1)C=CC(=O)O2
InChI: InChI=1S/C9H6O3/c10-7-3-1-6-2-4-9(11)12-8(6)5-7/h1-5,10H
Instrument: Thermo Scientific Q-Exactive Focus
Instrument type: LC-ESI-ITFT
Ms type: MS2
Ion mode: NEGATIVE
Ionization: ESI
Collision energy: 60
Column name: Acquity CSHC18
Retention time: 2.033 min
Base peak: 161.02441
Precursor m/z: 161.02441
Precursor type: [M-H]-
m/z	relative intensity
55.8978	90
63.0228	241
65.002	999
96.6088	93
109.0485	97
117.8955	95
120.1228	96
122.9919	94
138.707	92
171.0531	99
