Mass spectrum: L-Lactic acid; LC-ESI-ITFT; MS2; CE: 100;  [M-H]-
Name: L-Lactic acid
Class: Organic acids and derivatives; Hydroxy acids and derivatives; Alpha hydroxy acids and derivatives
Formula: C3H6O3
Exact mass: 90.03169
SMILES: C[C@H](O)C(O)=O
InChI: InChI=1S/C3H6O3/c1-2(4)3(5)6/h2,4H,1H3,(H,5,6)/t2-/m0/s1
Instrument: Thermo Scientific Q-Exactive Focus
Instrument type: LC-ESI-ITFT
Ms type: MS2
Ion mode: NEGATIVE
Ionization: ESI
Collision energy: 100
Column name: Acquity CSHC18
Retention time: 2.158 min
Base peak: 89.02442
Precursor m/z: 89.02442
Precursor type: [M-H]-
m/z	relative intensity
61.5063	999
61.9859	916
69.9613	886
70.3881	944
75.5474	932
75.5546	924
82.2635	872
93.9255	901
96.9196	921
107.1699	887
