Mass spectrum: Cystine; LC-ESI-QTOF; MS2; CE: 60;  [M+H]+
Name: Cystine
Class: NA
Formula: C6H12N2O4S2
Exact mass: 240.02385
SMILES: C(C(C(=O)O)N)SSCC(C(=O)O)N
InChI: InChI=1S/C6H12N2O4S2/c7-3(5(9)10)1-13-14-2-4(8)6(11)12/h3-4H,1-2,7-8H2,(H,9,10)(H,11,12)
Instrument: impact II
Instrument type: LC-ESI-QTOF
Ms type: MS2
Ion mode: POSITIVE
Ionization: ESI
Collision energy: 60
Column name: Acquity CSHC18
Retention time: 1.794 min
Base peak: 241.03110
Precursor m/z: 241.03110
Precursor type: [M+H]+
m/z	relative intensity
46.9954	121
47.9908	704
55.0184	389
58.9956	503
74.0064	999
74.0242	311
76.022	115
