Mass spectrum: THYROTROPIN RELEASING HORMONE; LC-ESI-QTOF; MS2; CE: 20;  [M-H]-
Name: THYROTROPIN RELEASING HORMONE
Class: NA
Formula: C16H22N6O4
Exact mass: 362.17025
SMILES: [H][C@@](CC1=CN=CN1)(NC(=O)[C@]1([H])CCC(=O)N1)C(=O)N1CCC[C@@]1([H])C(N)=O
InChI: InChI=1S/C16H22N6O4/c17-14(24)12-2-1-5-22(12)16(26)11(6-9-7-18-8-19-9)21-15(25)10-3-4-13(23)20-10/h7-8,10-12H,1-6H2,(H2,17,24)(H,18,19)(H,20,23)(H,21,25)/t10-,11-,12-/m0/s1
Instrument: Agilent 6530Â Q-TOF LC/MS
Instrument type: LC-ESI-QTOF
Ms type: MS2
Ion mode: NEGATIVE
Ionization: ESI
Collision energy: 20
Column name: NA
Retention time: 0.200 min
Base peak: 361.16366
Precursor m/z: 361.16366
Precursor type: [M-H]-
Precursor intensity: 186
m/z	relative intensity
42.0026	116
58.0333	117
67.0359	119
82.03	121
108.0718	128
109.0457	131
113.0734	137
124.0508	139
127.0612	188
132.0708	198
135.0564	211
167.0663	229
179.048	277
203.1264	303
204.0919	391
219.0961	396
233.1021	447
247.0955	505
263.1315	759
343.1602	999
