Mass spectrum: L-Glutamine; ESI-TOF; MS2; CE: 0.6458333;  [M+H]+
Name: L-Glutamine
Class: NA
Formula: C5H10N2O3
Exact mass: 146.06914
SMILES: NC(CCC(N)=O)C(O)=O
InChI: InChI=1S/C5H10N2O3/c6-3(5(9)10)1-2-4(7)8/h3H,1-2,6H2,(H2,7,8)(H,9,10)
Instrument: waters xevo g2 TOF
Instrument type: ESI-TOF
Ms type: MS2
Ion mode: POSITIVE
Ionization: ESI
Collision energy: 0.6458333
Column name: Acquity CSHC18
Retention time: 0.512 min
Base peak: 147.07714
Precursor m/z: 147.07714
Precursor type: [M+H]+
m/z	relative intensity
72.9384	13
74.9542	21
84.0458	999
85.0485	50
95.9745	24
99.9702	108
102.0738	7
124.0076	15
127.9815	23
128.9901	14
130.021	49
131.0539	5
138.9674	5
145.0183	33
147.1133	56
157.0055	27
159.0075	8
170.8667	8
185.0055	10
198.0102	7
217.8618	13
259.0255	21
330.0356	1
346.0575	21
400.9876	7
547.0495	7
692.116	5
