Mass spectrum: Isofraxidin; LC-ESI-QTOF; MS2; CE: 15.00;  [M+H]+
Name: Isofraxidin
Class: NA
Formula: C11H10O5
Exact mass: 222.0528
SMILES: COC1=C(C(=C2C(=C1)C=CC(=O)O2)OC)O
InChI: InChI=1S/C11H10O5/c1-14-7-5-6-3-4-8(12)16-10(6)11(15-2)9(7)13/h3-5,13H,1-2H3
Instrument: Bruker MicrOTOF-Q
Instrument type: LC-ESI-QTOF
Ms type: MS2
Ion mode: POSITIVE
Ionization: ESI
Collision energy: 15.00
Column name: Acquity CSHC18
Retention time: NA
Base peak: 223.0601
Precursor m/z: 223.0601
Precursor type: [M+H]+
m/z	relative intensity
162.032	20
163.0392	30
179.0348	47
190.0273	54
191.0311	82
195.0659	91
207.0298	104
208.0375	109
209.0413	340
223.0616	361
224.0647	999
