Mass spectrum: 1,2-dipetroselenoyl-sn-glycero-3-phosphocholine; ESI-TOF; MS2; CE: 6.0000000;  [M+H]+
Name: 1,2-dipetroselenoyl-sn-glycero-3-phosphocholine
Class: NA
Formula: C44H84NO8P
Exact mass: 785.59346
SMILES: [H]C(=C([H])C([H])([H])C([H])([H])C([H])([H])C([H])([H])C([H])([H])C([H])([H])C([H])([H])C([H])([H])C([H])([H])C([H])([H])C([H])([H])[H])C([H])([H])C([H])([H])C([H])([H])C([H])([H])C(=O)OC([H])([H])C([H])(OC(=O)C([H])([H])C([H])([H])C([H])([H])C([H])([H])C([H])=C([H])C([H])([H])C([H])([H])C([H])([H])C([H])([H])C([H])([H])C([H])([H])C([H])([H])C([H])([H])C([H])([H])C([H])([H])C([H])([H])[H])C([H])([H])OP(=O)([O-])OC([H])([H])C([H])([H])[N+](C([H])([H])[H])(C([H])([H])[H])C([H])([H])[H]
InChI: InChI=1S/C44H84NO8P/c1-6-8-10-12-14-16-18-20-22-24-26-28-30-32-34-36-43(46)50-40-42(41-52-54(48,49)51-39-38-45(3,4)5)53-44(47)37-35-33-31-29-27-25-23-21-19-17-15-13-11-9-7-2/h26-29,42H,6-25,30-41H2,1-5H3
Instrument: waters xevo g2 TOF
Instrument type: ESI-TOF
Ms type: MS2
Ion mode: POSITIVE
Ionization: ESI
Collision energy: 6.0000000
Column name: Acquity CSHC18
Retention time: 11.470 min
Base peak: 786.60146
Precursor m/z: 786.60146
Precursor type: [M+H]+
m/z	relative intensity
101.9649	2
125.9858	2
173.9618	1
184.0731	2
271.6508	1
279.636	2
288.1376	1
288.6428	3
289.1426	1
321.2102	39
322.2138	11
336.1867	1
337.1834	7
339.1856	2
351.2042	1
404.7892	2
412.7777	48
413.2787	32
413.7806	6
477.7544	4
486.2442	1
486.7455	1
504.3451	58
505.3482	14
565.705	1
603.5351	4
604.5356	1
612.1806	1
786.6001	999
787.6038	512
