Mass spectrum: TDP; LC-ESI-QTOF; MS2; CE: 60;  [M-H]-
Name: TDP
Class: Pyrimidine 2'-deoxyribonucleoside diphosphates
Formula: C10H16N2O11P2
Exact mass: 402.02293
SMILES: CC1=CN([C@H]2C[C@H](O)[C@@H](COP(O)(=O)OP(O)(O)=O)O2)C(=O)NC1=O
InChI: InChI=1S/C10H16N2O11P2/c1-5-3-12(10(15)11-9(5)14)8-2-6(13)7(22-8)4-21-25(19,20)23-24(16,17)18/h3,6-8,13H,2,4H2,1H3,(H,19,20)(H,11,14,15)(H2,16,17,18)/t6-,7+,8+/m0/s1
Instrument: impact II
Instrument type: LC-ESI-QTOF
Ms type: MS2
Ion mode: NEGATIVE
Ionization: ESI
Collision energy: 60
Column name: Acquity CSHC18
Retention time: 2.025 min
Base peak: 401.01530
Precursor m/z: 401.01530
Precursor type: [M-H]-
m/z	relative intensity
78.9596	999
158.9261	169
