Mass spectrum: Putative_Monoacetylvitexin 4'-rhamnoside; LC-ESI-QTOF; MS2; CE: 20-40eV;  [M+H]+
Name: Putative_Monoacetylvitexin 4'-rhamnoside
Class: Flavonoid C- glycosides
Formula: C29H32O15
Exact mass: 620.1741
SMILES: CC1(C(C(C(C(O1)(OC2=CC=C(C=C2)C3=CC(C=4C(=CC(=C(C4O3)C5(C(C(C(C(CO)(O5)[H])(OC(C)=O)[H])(O)[H])(O)[H])[H])O)O)=O)[H])(O)[H])(O)[H])(O)[H])[H]
InChI: InChI=1S/C29H32O15/c1-10-21(35)22(36)25(39)29(40-10)42-13-5-3-12(4-6-13)17-8-16(34)19-14(32)7-15(33)20(27(19)43-17)28-24(38)23(37)26(41-11(2)31)18(9-30)44-28/h3-8,10,18,21-26,28-30,32-33,35-39H,9H2,1-2H3
Instrument: Impact II, Bruker; Dionex 3000, Thermo Scientific
Instrument type: LC-ESI-QTOF
Ms type: MS2
Ion mode: POSITIVE
Ionization: ESI
Collision energy: 20-40eV
Column name: Acquity CSHC18
Retention time: 5.888 min
Base peak: 621.1824
Precursor m/z: 621.1824
Precursor type: [M+H]+
Precursor intensity: 7685.5
m/z	relative intensity
217.0688	276
460.154	999
