Mass spectrum: Myricetin; LC-ESI-QTOF; MS2; CE: 7-62eV;  [M-H]-
Name: Myricetin
Class: Phenolics
Formula: C15H10O8
Exact mass: 318.0376
SMILES: C1=C(C=C(C(=C1O)O)O)C2=C(C(=O)C3=C(C=C(C=C3O2)O)O)O
InChI: InChI=1S/C15H10O8/c16-6-3-7(17)11-10(4-6)23-15(14(22)13(11)21)5-1-8(18)12(20)9(19)2-5/h1-4,16-20,22H
Instrument: Bruker MicrOTOF-Q
Instrument type: LC-ESI-QTOF
Ms type: MS2
Ion mode: NEGATIVE
Ionization: ESI
Collision energy: 7-62eV
Column name: Acquity CSHC18
Retention time: 32.692 min
Base peak: 317.0280
Precursor m/z: 317.0280
Precursor type: [M-H]-
Precursor intensity: 21496.44
m/z	relative intensity
107.0158	18
109.033	18
125.0285	19
137.0303	20
151.0089	22
152.0082	23
164.009	27
165.0219	34
169.0096	38
178.9982	44
179.9966	56
192.0013	157
271.0272	161
299.9963	165
317.0563	999
