Mass spectrum: AMINOADIPATE; LC-ESI-QFT; MS2; CE: 30eV;  [M+H]+
Name: AMINOADIPATE
Class: NA
Formula: C6H11NO4
Exact mass: 161.06881
SMILES: NC(CCCC(O)=O)C(O)=O
InChI: InChI=1S/C6H11NO4/c7-4(6(10)11)2-1-3-5(8)9/h4H,1-3,7H2,(H,8,9)(H,10,11)
Instrument: Q-Exactive Orbitrap, Thermo Scientfic; Ultimate 3000 HPLC, Thermo Scientfic
Instrument type: LC-ESI-QFT
Ms type: MS2
Ion mode: POSITIVE
Ionization: ESI
Collision energy: 30eV
Column name: Acquity CSHC18
Retention time: 0.622 min
Base peak: 162.0761
Precursor m/z: 162.0761
Precursor type: [M+H]+
Precursor intensity: 104
m/z	relative intensity
51.0416	2
51.6188	2
52.42	2
52.7079	2
55.0186	38
55.055	4
56.0503	28
56.6914	2
57.9118	2
58.8288	2
60.5456	2
66.4782	2
70.0659	43
71.0499	6
81.1073	3
88.4748	3
91.3619	2
91.7401	2
97.6546	2
99.0446	28
99.0639	34
103.4224	2
104.0526	2
106.5742	2
108.5383	2
116.0711	999
116.9833	3
117.0745	17
117.9802	11
144.0659	950
145.0494	3
145.0694	25
162.0764	322
163.0794	4
