Mass spectrum: SEROTONIN; LC-ESI-QTOF; MS2; CE: 20;  [M+H]+
Name: SEROTONIN
Class: NA
Formula: C10H12N2O
Exact mass: 176.09496
SMILES: NCCC1=CNC2=CC=C(O)C=C12
InChI: InChI=1S/C10H12N2O/c11-4-3-7-6-12-10-2-1-8(13)5-9(7)10/h1-2,5-6,12-13H,3-4,11H2
Instrument: Agilent 6530Â Q-TOF LC/MS
Instrument type: LC-ESI-QTOF
Ms type: MS2
Ion mode: POSITIVE
Ionization: ESI
Collision energy: 20
Column name: NA
Retention time: 0.200 min
Base peak: 177.10523
Precursor m/z: 177.10523
Precursor type: [M+H]+
Precursor intensity: 36.5
m/z	relative intensity
42.0337	21
43.0542	21
44.0185	21
54.0335	21
55.0216	21
57.066	21
63.0216	22
65.0463	22
67.0631	22
71.0828	23
77.0622	23
78.0388	23
79.075	24
80.0463	24
82.0274	24
89.0518	24
90.0497	25
91.0695	25
92.0512	26
93.0491	26
94.0552	28
102.0351	28
103.0653	28
104.0626	29
105.1165	29
106.0599	32
107.0597	34
114.0266	36
115.1527	37
115.4901	37
115.7341	40
116.0745	47
117.0956	47
117.3081	48
117.558	49
118.0681	60
120.0599	63
130.0888	64
131.0876	65
131.3568	80
132.1263	81
132.3736	86
132.4857	99
132.753	100
133.09	110
133.3579	111
133.5996	157
134.0637	176
140.055	176
141.0742	178
142.0971	217
142.4526	234
143.0963	243
144.0646	340
145.0603	354
156.0391	452
158.0753	480
158.8183	483
159.1146	655
160.5351	690
161.1634	967
161.4182	999
161.6185	21
177.0714	21
