Mass spectrum: Catechin; LC-ESI-ITFT; MS2; CE: 45eV;  [M+H]+
Name: Catechin
Class: flavonoid
Formula: C15H14O6
Exact mass: 290.0790
SMILES: C1C(C(OC2=CC(=CC(=C21)O)O)C3=CC(=C(C=C3)O)O)O
InChI: InChI=1S/C15H14O6/c16-8-4-11(18)9-6-13(20)15(21-14(9)5-8)7-1-2-10(17)12(19)3-7/h1-5,13,15-20H,6H2
Instrument: LTQ Orbitrap XL, Thermo Scientfic; Dionex Ultimate 300
Instrument type: LC-ESI-ITFT
Ms type: MS2
Ion mode: POSITIVE
Ionization: ESI
Collision energy: 45eV
Column name: Alltima C18
Retention time: 11.78 min
Base peak: 291.0836
Precursor m/z: 291.0836
Precursor type: [M+H]+
m/z	relative intensity
105.0141	8
118.965	14
135.0171	3
150.8792	999
162.9792	25
223.1729	3
243.1331	2
244.9294	27
