Mass spectrum: 17,20-dimethyl Prostaglandin F1-alpha; ESI-TOF; MS2; CE: 0.6458333;  [M+H]+
Name: 17,20-dimethyl Prostaglandin F1-alpha
Class: NA
Formula: C22H40O5
Exact mass: 384.28757
SMILES: O[C@@H]1[C@H](CCCCCCC(O)=O)[C@@H](/C=C/[C@@H](O)C[C@@H](C)CCCC)[C@H](O)C1
InChI: InChI=1S/C22H40O5/c1-3-4-9-16(2)14-17(23)12-13-19-18(20(24)15-21(19)25)10-7-5-6-8-11-22(26)27/h12-13,16-21,23-25H,3-11,14-15H2,1-2H3,(H,26,27)/b13-12+/t16-,17+,18+,19+,20-,21+/m0/s1
Instrument: waters xevo g2 TOF
Instrument type: ESI-TOF
Ms type: MS2
Ion mode: POSITIVE
Ionization: ESI
Collision energy: 0.6458333
Column name: Acquity CSHC18
Retention time: 4.064 min
Base peak: 385.29557
Precursor m/z: 385.29557
Precursor type: [M+H]+
m/z	relative intensity
67.0526	48
69.0684	52
79.0549	72
81.0705	351
83.0849	71
91.0539	156
93.0701	276
95.0856	201
97.1031	54
105.0707	494
107.0859	218
109.102	155
111.0802	33
117.0708	132
119.0686	384
121.1026	140
123.1165	82
127.1108	35
129.0717	34
131.0856	269
133.1018	232
135.1164	99
137.1333	76
143.086	49
145.1019	172
147.1176	152
157.1013	48
159.1177	97
161.1347	101
163.1511	40
171.1161	61
173.1306	78
175.1483	47
185.1273	29
186.2237	49
189.1625	63
191.177	10
195.1391	33
197.1305	28
205.16	18
207.1383	36
217.1962	32
221.1542	29
233.1535	190
234.1552	14
235.1689	35
247.1685	72
287.2351	22
304.2992	24
305.247	124
306.2503	12
313.2509	21
326.3777	467
327.3811	73
331.2628	540
332.2674	99
335.2618	42
348.175	97
351.181	68
353.1985	36
361.2045	999
369.2142	43
376.1749	119
377.1767	480
378.1821	65
379.179	56
387.2198	145
