Mass spectrum: N-Acetyl-L-alanine; ESI-TOF; MS2; CE: 0.6458333;  [M+H]+
Name: N-Acetyl-L-alanine
Class: NA
Formula: C5H9NO3
Exact mass: 131.05824
SMILES: CC(NC(C)=O)C(O)=O
InChI: InChI=1S/C5H9NO3/c1-3(5(8)9)6-4(2)7/h3H,1-2H3,(H,6,7)(H,8,9)
Instrument: waters xevo g2 TOF
Instrument type: ESI-TOF
Ms type: MS2
Ion mode: POSITIVE
Ionization: ESI
Collision energy: 0.6458333
Column name: Acquity CSHC18
Retention time: 0.939 min
Base peak: 132.06624
Precursor m/z: 132.06624
Precursor type: [M+H]+
m/z	relative intensity
72.9377	136
90.0554	5
90.0556	5
96.9614	5
128.0021	146
128.0022	195
132.0658	5
132.0659	5
137.9877	5
138.0736	5
140.9875	999
154.0478	5
154.0479	5
158.0031	10
169.0289	5
170.0127	551
170.0133	902
182.0143	5
182.0145	5
189.9799	5
210.0552	5
210.0559	5
225.0855	5
226.0872	5
226.0876	5
227.0114	5
227.0117	5
231.9901	5
231.9912	5
287.0817	5
287.0828	5
301.0711	5
316.0347	5
316.0352	5
317.0424	5
317.0425	5
