Mass spectrum: C12 Ceramide (d18:1/12:0); ESI-TOF; MS2; CE: 0.6458333;  [M+H]+
Name: C12 Ceramide (d18:1/12:0)
Class: NA
Formula: C30H59NO3
Exact mass: 481.44949
SMILES: [H]OC([H])([H])C([H])(N([H])C(=O)C([H])([H])C([H])([H])C([H])([H])C([H])([H])C([H])([H])C([H])([H])C([H])([H])C([H])([H])C([H])([H])C([H])([H])C([H])([H])[H])C([H])(O[H])C([H])=C([H])C([H])([H])C([H])([H])C([H])([H])C([H])([H])C([H])([H])C([H])([H])C([H])([H])C([H])([H])C([H])([H])C([H])([H])C([H])([H])C([H])([H])C([H])([H])[H]
InChI: InChI=1S/C30H59NO3/c1-3-5-7-9-11-13-14-15-16-18-19-21-23-25-29(33)28(27-32)31-30(34)26-24-22-20-17-12-10-8-6-4-2/h23,25,28-29,32-33H,3-22,24,26-27H2,1-2H3,(H,31,34)
Instrument: waters xevo g2 TOF
Instrument type: ESI-TOF
Ms type: MS2
Ion mode: POSITIVE
Ionization: ESI
Collision energy: 0.6458333
Column name: Acquity CSHC18
Retention time: 9.761 min
Base peak: 482.45749
Precursor m/z: 482.45749
Precursor type: [M+H]+
m/z	relative intensity
79.055	5
81.0705	10
82.0658	10
83.086	4
84.9603	8
93.0705	8
95.0857	15
97.1009	4
107.0855	5
109.1017	10
121.1014	14
135.1171	11
149.133	4
200.2012	42
201.2035	4
211.2051	4
236.6955	26
237.1977	12
238.1532	35
242.6957	38
243.1979	11
247.2424	7
251.7012	5
252.2359	108
253.2721	40
264.2165	999
265.2188	205
266.275	40
280.1359	3
282.2797	254
283.2829	48
284.2847	2
374.269	2
388.29	2
434.4363	22
435.4338	6
446.4358	50
447.4401	15
448.4423	2
453.4099	6
453.9125	2
459.4098	7
459.9107	5
464.4466	336
465.4499	120
466.4528	20
468.4136	2
472.3839	8
477.4196	7
482.4573	33
483.4587	10
