Mass spectrum: D-PINITOL; LC-ESI-QTOF; MS2; CE: 40;  [M-H]-
Name: D-PINITOL
Class: NA
Formula: C7H14O6
Exact mass: 194.07904
SMILES: CO[C@@H]1[C@@H](O)[C@@H](O)[C@H](O)[C@H](O)[C@H]1O
InChI: InChI=1S/C7H14O6/c1-13-7-5(11)3(9)2(8)4(10)6(7)12/h2-12H,1H3/t2-,3-,4-,5-,6+,7+/m0/s1
Instrument: Agilent 6530Â Q-TOF LC/MS
Instrument type: LC-ESI-QTOF
Ms type: MS2
Ion mode: NEGATIVE
Ionization: ESI
Collision energy: 40
Column name: NA
Retention time: 0.200 min
Base peak: 193.07379
Precursor m/z: 193.07379
Precursor type: [M-H]-
Precursor intensity: 102
m/z	relative intensity
41.0203	122
43.0332	126
45.0097	145
51.0188	148
53.0177	154
55.0419	172
57.0377	173
58.0163	175
59.0275	182
67.0175	239
69.0267	250
71.0237	379
79.0201	529
83.0123	657
86.0064	668
95.0191	756
97.0252	820
124.0189	999
