Mass spectrum: Guaifenesin; ESI-TOF; MS2; CE: 0.6458333;  [M+H]+
Name: Guaifenesin
Class: NA
Formula: C10H14O4
Exact mass: 198.08921
SMILES: COC1=CC=CC=C1OCC(O)CO
InChI: InChI=1S/C10H14O4/c1-13-9-4-2-3-5-10(9)14-7-8(12)6-11/h2-5,8,11-12H,6-7H2,1H3
Instrument: waters xevo g2 TOF
Instrument type: ESI-TOF
Ms type: MS2
Ion mode: POSITIVE
Ionization: ESI
Collision energy: 0.6458333
Column name: Acquity CSHC18
Retention time: 2.214 min
Base peak: 199.09721
Precursor m/z: 199.09721
Precursor type: [M+H]+
m/z	relative intensity
64.0324	8
65.0399	262
66.0443	22
75.0457	7
77.0397	999
78.0438	84
79.0554	365
80.0611	46
81.0349	36
82.9809	7
84.0528	4
91.0551	477
92.0265	157
93.0345	864
94.0391	147
95.0501	519
96.0533	38
96.9971	63
98.9763	19
102.0406	47
103.0552	804
104.0584	84
105.0707	706
106.0462	36
107.0499	154
108.0573	85
109.0474	200
110.0373	421
111.5146	64
112.9919	133
114.001	5
115.0556	74
116.058	8
117.071	11
118.0419	4
119.0384	216
119.5277	14
120.0573	252
120.52	231
121.0191	681
122.037	987
122.9992	169
124.0495	597
125.0604	301
126.0636	24
127.0442	17
128.0318	412
128.5336	49
128.9755	14
129.5253	99
130.0604	20
131.0154	109
132.0101	73
133.0653	65
135.0191	19
136.0434	38
137.0605	293
137.5392	22
138.0198	17
139.0341	2
139.9886	8
140.9645	3
142.5225	8
145.0658	91
146.07	9
147.018	29
148.0183	221
148.5355	16
149.0308	42
149.9781	5
151.0761	81
151.9767	5
152.9638	18
155.5304	3
156.0352	27
157.5279	7
158.0177	3
162.0396	8
162.9895	244
164.0181	221
164.9634	42
165.5273	18
165.9575	169
167.0212	45
167.9708	41
168.959	18
169.949	5
173.5402	34
177.9832	42
178.9778	98
179.542	14
180.0147	26
180.5486	12
181.0149	63
181.9668	32
182.9522	92
185.0402	2
187.0529	24
187.9795	9
188.5425	1
189.0309	4
189.972	114
190.9754	24
191.9877	19
193.0273	16
193.9873	9
195.9822	165
196.9894	1
198.0369	34
199.979	13
