Mass spectrum: Hesperidin methylchalcone; LC-ESI-QTOF; MS2; CE: 38.76;  [M+H]+
Name: Hesperidin methylchalcone
Class: NA
Formula: C29H36O15
Exact mass: 624.2054
SMILES: CC1C(C(C(C(O1)OCC2C(C(C(C(O2)OC3=CC(=C(C(=C3)OC)C(=O)C=CC4=CC(=C(C=C4)OC)O)O)O)O)O)O)O)O
InChI: InChI=1S/C29H36O15/c1-12-22(33)24(35)26(37)28(42-12)41-11-20-23(34)25(36)27(38)29(44-20)43-14-9-17(32)21(19(10-14)40-3)15(30)6-4-13-5-7-18(39-2)16(31)8-13/h4-10,12,20,22-29,31-38H,11H2,1-3H3
Instrument: Bruker MicrOTOF-Q
Instrument type: LC-ESI-QTOF
Ms type: MS2
Ion mode: POSITIVE
Ionization: ESI
Collision energy: 38.76
Column name: Acquity CSHC18
Retention time: NA
Base peak: 625.2141
Precursor m/z: 625.2141
Precursor type: [M+H]+
m/z	relative intensity
135.0474	7
153.0176	501
154.0223	43
155.0223	10
163.0789	21
165.0241	17
165.0897	64
166.0941	8
167.0398	12
176.0437	4
179.0342	167
180.0385	22
181.0451	6
191.0707	776
192.0743	90
195.03	169
196.032	14
203.0324	33
217.0494	20
219.0273	86
220.0324	9
221.0422	8
237.0474	4
245.0461	141
246.0477	14
249.0402	4
263.0568	71
264.0599	19
265.0588	3
268.0746	11
271.1014	5
275.0903	28
299.0931	49
300.1003	11
301.1103	14
302.1186	4
315.0867	106
316.0907	21
317.1035	999
318.1073	173
319.1052	21
367.1239	5
391.1183	4
