Mass spectrum: 6-Hydroxydopamine; ESI-TOF; MS2; CE: 0.6458333;  [M+H]+
Name: 6-Hydroxydopamine
Class: NA
Formula: C8H11NO3
Exact mass: 169.07389
SMILES: NCCC1=C(O)C=C(O)C(O)=C1
InChI: InChI=1S/C8H11NO3/c9-2-1-5-3-7(11)8(12)4-6(5)10/h3-4,10-12H,1-2,9H2
Instrument: waters xevo g2 TOF
Instrument type: ESI-TOF
Ms type: MS2
Ion mode: POSITIVE
Ionization: ESI
Collision energy: 0.6458333
Column name: Acquity CSHC18
Retention time: 0.537 min
Base peak: 170.08189
Precursor m/z: 170.08189
Precursor type: [M+H]+
m/z	relative intensity
55.0554	4
63.0238	4
68.9982	74
71.0136	11
79.0551	290
80.0581	21
81.0343	49
83.0503	354
84.0534	21
85.0288	8
89.0394	263
90.0425	21
93.034	11
97.0659	25
106.0656	94
107.0499	999
108.0531	86
109.0291	69
110.036	7
111.0447	32
117.0341	76
118.0627	3
118.8802	4
120.8789	2
123.0716	50
124.076	33
125.0604	27
134.0606	64
134.9489	296
136.0481	57
137.0556	3
139.0395	68
140.0436	3
141.9721	1
145.0172	1
149.0602	11
151.0396	132
151.9964	93
153.1212	130
154.2634	39
161.0734	1
166.0867	13
167.0708	58
168.067	8
170.0822	21
175.8812	10
182.0079	1
191.0221	10
192.9587	13
193.9642	2
205.967	8
206.9741	11
222.9638	5
223.9985	5
237.0077	1
297.0878	6
300.0883	2
344.0034	2
345.0054	14
346.0504	5
356.0167	2
358.0145	35
359.0559	7
362.0325	3
363.1142	2
371.0441	1
375.0441	5
388.072	1
392.067	3
415.9517	2
444.9857	1
446.0608	6
447.0655	4
447.9944	2
610.0619	1
