Mass spectrum: Stigmasterol; APCI-ITFT; MS2; CE: 35 CID;  [M+H]+
Name: Stigmasterol
Class: NA
Formula: C29H48O
Exact mass: 412.37052
SMILES: CCC(C=CC(C)C1CCC2C1(CCC3C2CC=C4C3(CCC(C4)O)C)C)C(C)C
InChI: InChI=1S/C29H48O/c1-7-21(19(2)3)9-8-20(4)25-12-13-26-24-11-10-22-18-23(30)14-16-28(22,5)27(24)15-17-29(25,26)6/h8-10,19-21,23-27,30H,7,11-18H2,1-6H3
Instrument: Orbitrap Elite
Instrument type: APCI-ITFT
Ms type: MS2
Ion mode: POSITIVE
Ionization: APCI
Collision energy: 35 CID
Column name: Acquity CSHC18
Retention time: 0.108 min
Base peak: 413.37650
Precursor m/z: 413.37650
Precursor type: [M+H]+
Precursor intensity: 12965000
m/z	relative intensity
55.2894	22
83.0778	35
96.9188	36
109.4638	41
123.3189	45
135.1149	45
148.5633	46
161.8173	55
175.6845	57
188.8144	62
201.0516	83
215.474	86
229.4555	95
240.1869	97
244.4515	97
254.1967	101
271.4754	103
284.2483	106
296.2483	116
300.6561	121
310.5068	162
314.7724	183
353.319	287
379.839	381
395.5817	528
413.0052	999
