Mass spectrum: Jasmonic acid; LC-ESI-ITFT; MS2; CE: 60;  [M-H]-
Name: Jasmonic acid
Class: Lipids and lipid-like molecules; Fatty Acyls; Lineolic acids and derivatives
Formula: C12H18O3
Exact mass: 210.12559
SMILES: CC\C=C/C[C@@H]1[C@@H](CC(O)=O)CCC1=O
InChI: InChI=1S/C12H18O3/c1-2-3-4-5-10-9(8-12(14)15)6-7-11(10)13/h3-4,9-10H,2,5-8H2,1H3,(H,14,15)/b4-3-/t9-,10-/m1/s1
Instrument: Thermo Scientific Q-Exactive Focus
Instrument type: LC-ESI-ITFT
Ms type: MS2
Ion mode: NEGATIVE
Ionization: ESI
Collision energy: 60
Column name: Acquity CSHC18
Retention time: 2.027 min
Base peak: 209.11832
Precursor m/z: 209.11832
Precursor type: [M-H]-
m/z	relative intensity
75.8238	319
83.595	316
92.5153	999
97.4295	303
111.336	296
118.7162	308
126.5877	303
192.3988	317
229.6221	341
229.7787	341
