Mass spectrum: Thymidine; LC-ESI-QTOF; MS2; CE: 15.00;  [M-C5H8O3+H]+
Name: Thymidine
Class: NA
Formula: C10H14N2O5
Exact mass: 242.0903
SMILES: CC1=CN(C(=O)NC1=O)C2CC(C(O2)CO)O
InChI: InChI=1S/C10H14N2O5/c1-5-3-12(10(16)11-9(5)15)8-2-6(14)7(4-13)17-8/h3,6-8,13-14H,2,4H2,1H3,(H,11,15,16)
Instrument: Bruker MicrOTOF-Q
Instrument type: LC-ESI-QTOF
Ms type: MS2
Ion mode: POSITIVE
Ionization: ESI
Collision energy: 15.00
Column name: Acquity CSHC18
Retention time: NA
Base peak: 127.0502
Precursor m/z: 127.0502
Precursor type: [M-C5H8O3+H]+
m/z	relative intensity
84.0366	6
99.0536	11
109.0354	407
110.0203	978
111.0213	66
126.9894	6
127.0473	999
128.0529	73
129.0453	8
244.2491	14
