Mass spectrum: (+)-Cloprostenol; ESI-TOF; MS2; CE: 0.6458333;  [M+H]+
Name: (+)-Cloprostenol
Class: NA
Formula: C22H29ClO6
Exact mass: 424.16527
SMILES: C1C(C(C(C1O)C=CC(COC2=CC(=CC=C2)Cl)O)CC=CCCCC(=O)O)O
InChI: InChI=1S/C22H29ClO6/c23-15-6-5-7-17(12-15)29-14-16(24)10-11-19-18(20(25)13-21(19)26)8-3-1-2-4-9-22(27)28/h1,3,5-7,10-12,16,18-21,24-26H,2,4,8-9,13-14H2,(H,27,28)
Instrument: waters xevo g2 TOF
Instrument type: ESI-TOF
Ms type: MS2
Ion mode: POSITIVE
Ionization: ESI
Collision energy: 0.6458333
Column name: Acquity CSHC18
Retention time: 3.585 min
Base peak: 425.17327
Precursor m/z: 425.17327
Precursor type: [M+H]+
m/z	relative intensity
83.0494	778
91.055	999
93.0704	208
105.0711	603
107.0509	71
115.0552	227
117.0709	916
119.0861	403
128.0111	202
129.0705	901
131.0858	466
133.0844	88
141.0701	580
142.0766	148
143.0859	340
144.0895	68
145.1016	308
147.1001	91
153.0704	166
155.0872	801
156.0892	91
157.1015	331
159.082	240
161.0966	232
165.0945	10
167.0718	75
168.0859	86
169.1013	448
171.1189	251
173.1139	104
179.0951	134
181.1023	327
182.107	75
183.1171	605
187.1107	109
189.1276	86
190.1311	10
191.1096	10
197.1336	219
199.1078	10
201.1265	10
207.1368	10
208.1419	10
214.0517	10
215.1433	10
217.1224	10
218.1274	10
219.1392	10
223.0583	10
225.1277	394
226.1314	10
231.1405	10
233.1537	10
235.1681	10
243.0979	282
244.1411	10
245.1532	10
261.1482	391
262.1507	50
263.1573	10
273.0779	110
275.1631	10
277.0512	126
279.1595	623
280.1627	10
281.1631	10
293.1699	10
345.1222	10
371.1389	86
372.1402	10
373.1392	10
388.0603	45
389.1528	10
390.1611	10
391.1492	10
407.1626	10
417.0576	266
