Mass spectrum: XANTHOSINE-MONOPHOSPHATE; LC-ESI-QFT; MS2; CE: 30eV;  [M+H]+
Name: XANTHOSINE-MONOPHOSPHATE
Class: NA
Formula: C10H13N4O9P
Exact mass: 364.04201
SMILES: C1=NC2=C(N1C3C(C(C(O3)COP(=O)(O)O)O)O)NC(=O)NC2=O
InChI: InChI=1S/C10H13N4O9P/c15-5-3(1-22-24(19,20)21)23-9(6(5)16)14-2-11-4-7(14)12-10(18)13-8(4)17/h2-3,5-6,9,15-16H,1H2,(H2,19,20,21)(H2,12,13,17,18)
Instrument: Q-Exactive Orbitrap, Thermo Scientfic; Ultimate 3000 HPLC, Thermo Scientfic
Instrument type: LC-ESI-QFT
Ms type: MS2
Ion mode: POSITIVE
Ionization: ESI
Collision energy: 30eV
Column name: Acquity CSHC18
Retention time: 0.730 min
Base peak: 365.0493
Precursor m/z: 365.0493
Precursor type: [M+H]+
Precursor intensity: 142
m/z	relative intensity
52.4621	1
53.9608	1
56.9981	1
63.2481	1
69.0343	10
81.0343	13
86.458	1
97.0292	999
98.0325	30
98.985	1
115.0016	1
153.0412	303
154.0253	3
154.0387	2
154.0446	8
217.175	1
229.9604	1
234.6668	1
236.1191	1
255.8369	1
345.707	1
366.7942	1
369.1759	1
