Mass spectrum: Malaphyllidin; LC-ESI-ITFT; MS2; CE: 50eV;  [M+H]+
Name: Malaphyllidin
Class: Sesquiterpenelactone; Guaianolide
Formula: C15H12O3
Exact mass: 240.0786
SMILES: CC=3C=CC=1C(OC(=O)C=1C)=C2C=3C(=O)C=C2C
InChI: InChI=1S/C15H12O3/c1-7-4-5-10-9(3)15(17)18-14(10)13-8(2)6-11(16)12(7)13/h4-6H,1-3H3
Instrument: Q Exactive Plus, ThermoFisher Scientific
Instrument type: LC-ESI-ITFT
Ms type: MS2
Ion mode: POSITIVE
Ionization: ESI
Collision energy: 50eV
Column name: Acquity CSHC18
Retention time: 8.058 min
Base peak: 241.0856
Precursor m/z: 241.0856
Precursor type: [M+H]+
Precursor intensity: 1038472000
m/z	relative intensity
70.3385	2
73.7829	2
88.6559	1
97.4353	2
185.0948	13
213.0906	7
241.0859	999
