Mass spectrum: 15(R)-17-phenyl trinor Prostaglandin F2-alpha isopropyl ester; ESI-TOF; MS2; CE: 6.0000000;  [M+H]+
Name: 15(R)-17-phenyl trinor Prostaglandin F2-alpha isopropyl ester
Class: NA
Formula: C26H38O5
Exact mass: 430.27192
SMILES: O[C@@H]1[C@H](C/C=C\CCCC(OC(C)C)=O)[C@@H](/C=C/[C@H](O)CCC2=CC=CC=C2)[C@H](O)C1
InChI: InChI=1S/C26H38O5/c1-19(2)31-26(30)13-9-4-3-8-12-22-23(25(29)18-24(22)28)17-16-21(27)15-14-20-10-6-5-7-11-20/h3,5-8,10-11,16-17,19,21-25,27-29H,4,9,12-15,18H2,1-2H3/b8-3-,17-16+/t21-,22-,23-,24+,25-/m1/s1
Instrument: waters xevo g2 TOF
Instrument type: ESI-TOF
Ms type: MS2
Ion mode: POSITIVE
Ionization: ESI
Collision energy: 6.0000000
Column name: Acquity CSHC18
Retention time: 4.184 min
Base peak: 431.27992
Precursor m/z: 431.27992
Precursor type: [M+H]+
m/z	relative intensity
101.9624	5
117.0714	27
131.0869	318
132.09	17
141.0703	1
171.1168	6
173.116	29
187.1128	29
196.0829	28
203.1069	4
205.0886	77
207.1161	12
211.1591	47
219.1297	5
231.1376	13
239.1447	4
247.1711	42
248.1709	4
251.1431	7
257.1574	12
263.1619	9
265.1807	7
281.1927	8
283.1909	28
289.1734	2
291.175	25
292.1764	4
297.1803	5
309.1849	16
311.1958	5
317.1902	223
318.1935	58
319.1999	6
326.3792	55
327.3808	9
335.2011	467
336.204	107
337.2169	20
351.232	140
352.2339	36
353.2119	182
354.2156	36
355.214	3
360.3642	3
377.2482	999
378.2521	302
379.26	58
393.2486	2
394.1603	30
395.259	610
396.2594	171
409.2701	3
410.1723	1
411.7178	4
412.1696	8
413.2703	432
414.2719	99
415.2767	16
427.1781	9
