Mass spectrum: apigenin 4'-methylether; LC-ESI-ITFT; MS2; CE: 0.3;  [M+H]+
Name: apigenin 4'-methylether
Class: flavones
Formula: C16H12O5
Exact mass: 284.0685
SMILES: COC1=CC=C(C=C1)C2=CC(=O)C3=C(C=C(C=C3O2)O)O
InChI: InChI=1S/C16H12O5/c1-20-11-4-2-9(3-5-11)14-8-13(19)16-12(18)6-10(17)7-15(16)21-14/h2-8,17-18H,1H3
Instrument: LTQ-Orbitrap XL hybrid mass spectrometer (Thermo Scientific)
Instrument type: LC-ESI-ITFT
Ms type: MS2
Ion mode: POSITIVE
Ionization: ESI
Collision energy: 0.3
Column name: Acquity CSHC18
Retention time: 10.973 min
Base peak: 285.0749
Precursor m/z: 285.0749
Precursor type: [M+H]+
Precursor intensity: 11486740
m/z	relative intensity
66.9009	8
67.2073	10
68.137	8
73.6728	7
78.916	8
82.3403	8
86.1006	12
95.2886	8
97.4934	8
101.1682	10
106.2506	9
109.6426	11
111.0772	9
114.7049	9
115.0467	11
121.2799	13
121.65	9
126.17	9
133.064	13
134.4337	13
135.6633	9
140.8502	11
141.8225	9
144.0455	10
145.4054	10
153.0177	32
157.6383	9
163.3044	11
167.0231	18
167.3047	10
170.2461	11
173.1249	11
175.5449	12
178.7591	12
180.6162	10
180.6255	10
182.9078	10
183.0192	10
186.4325	12
188.3801	11
188.4277	12
188.7034	9
194.8208	9
195.5904	11
199.3401	12
215.9521	11
216.9915	12
217.3196	12
220.5059	12
221.4583	12
223.4639	15
227.1251	11
230.6488	12
234.169	9
234.1771	10
235.2403	12
236.0688	14
241.8998	12
242.0569	97
243.0668	14
246.3082	12
247.3133	12
254.1533	13
256.2662	14
256.4778	12
256.8196	10
257.075	13
258.0089	17
259.8628	13
261.3455	16
262.825	14
263.896	12
268.3632	12
269.3806	16
270.0516	999
270.8567	15
271.055	92
273.0826	14
273.9094	14
273.9911	14
276.9947	13
277.3789	12
277.4864	18
277.7301	14
279.1302	13
281.9959	13
285.0749	811
