Mass spectrum: Homocysteine; ESI-TOF; MS2; CE: 0.6458333;  [M+H]+
Name: Homocysteine
Class: NA
Formula: C4H9NO2S
Exact mass: 135.03540
SMILES: NC(CCS)C(O)=O
InChI: InChI=1S/C4H9NO2S/c5-3(1-2-8)4(6)7/h3,8H,1-2,5H2,(H,6,7)
Instrument: waters xevo g2 TOF
Instrument type: ESI-TOF
Ms type: MS2
Ion mode: POSITIVE
Ionization: ESI
Collision energy: 0.6458333
Column name: Acquity CSHC18
Retention time: 0.560 min
Base peak: 136.04340
Precursor m/z: 136.04340
Precursor type: [M+H]+
m/z	relative intensity
73.0113	3
86.953	24
88.0221	265
90.0376	999
91.0405	3
92.0332	3
100.9921	99
108.9647	3
118.0325	3
130.9667	3
134.0264	66
136.0436	68
137.0458	3
138.0395	3
148.0432	17
149.0448	3
149.9609	3
162.0587	3
167.007	3
172.8618	279
177.9804	3
180.989	3
188.9551	42
189.9625	3
192.1598	3
206.0135	3
230.9627	3
234.9637	3
236.9392	3
269.0631	3
277.9841	3
306.9931	3
322.9836	3
323.9888	31
324.9885	3
