Mass spectrum: 25-HydroxyCholesterol; LC-ESI-QTOF; MS2; CE: 60;  [M-2H2O+H]+
Name: 25-HydroxyCholesterol
Class: Cholesterols and derivatives
Formula: C27H46O2
Exact mass: 402.34978
SMILES: [H]C12CC[C@H]([C@H](C)CCCC(C)(C)O)[C@@]1(C)CCC1([H])[C@@]2([H])CC=C2C[C@@H](O)CC[C@]12C
InChI: InChI=1S/C27H46O2/c1-18(7-6-14-25(2,3)29)22-10-11-23-21-9-8-19-17-20(28)12-15-26(19,4)24(21)13-16-27(22,23)5/h8,18,20-24,28-29H,6-7,9-17H2,1-5H3/t18-,20+,21+,22-,23?,24?,26+,27-/m1/s1
Instrument: impact II
Instrument type: LC-ESI-QTOF
Ms type: MS2
Ion mode: POSITIVE
Ionization: ESI
Collision energy: 60
Column name: Acquity CSHC18
Retention time: 1.801 min
Base peak: 367.33690
Precursor m/z: 367.33690
Precursor type: [M-2H2O+H]+
m/z	relative intensity
143.5892	999
