Mass spectrum: PHOSPHONOACETATE; LC-ESI-QTOF; MS2; CE: 10;  [M-H]-
Name: PHOSPHONOACETATE
Class: NA
Formula: C2H5O5P
Exact mass: 139.98746
SMILES: OC(=O)CP(O)(O)=O
InChI: InChI=1S/C2H5O5P/c3-2(4)1-8(5,6)7/h1H2,(H,3,4)(H2,5,6,7)
Instrument: Agilent 6530Â Q-TOF LC/MS
Instrument type: LC-ESI-QTOF
Ms type: MS2
Ion mode: NEGATIVE
Ionization: ESI
Collision energy: 10
Column name: NA
Retention time: 0.200 min
Base peak: 138.97846
Precursor m/z: 138.97846
Precursor type: [M-H]-
Precursor intensity: 156
m/z	relative intensity
62.9625	141
76.9805	154
78.9756	160
94.9983	320
138.9785	999
