Mass spectrum: 13,14-dihydro-15-keto Prostaglandin A2; ESI-TOF; MS2; CE: 0.6458333;  [M+H]+
Name: 13,14-dihydro-15-keto Prostaglandin A2
Class: NA
Formula: C20H30O4
Exact mass: 334.21441
SMILES: O=C1[C@H](C/C=C\CCCC(O)=O)[C@@H](CCC(CCCCC)=O)C=C1
InChI: InChI=1S/C20H30O4/c1-2-3-6-9-17(21)14-12-16-13-15-19(22)18(16)10-7-4-5-8-11-20(23)24/h4,7,13,15-16,18H,2-3,5-6,8-12,14H2,1H3,(H,23,24)/b7-4-/t16-,18+/m0/s1
Instrument: waters xevo g2 TOF
Instrument type: ESI-TOF
Ms type: MS2
Ion mode: POSITIVE
Ionization: ESI
Collision energy: 0.6458333
Column name: Acquity CSHC18
Retention time: 3.797 min
Base peak: 335.22241
Precursor m/z: 335.22241
Precursor type: [M+H]+
m/z	relative intensity
71.0854	81
79.0542	31
81.0688	61
91.0545	121
99.0818	161
105.0713	70
109.0664	59
121.0647	92
123.0823	32
129.0709	166
133.0317	63
135.0806	40
142.0776	46
143.088	125
144.0939	10
145.0645	84
155.0865	166
157.1017	172
161.0979	30
165.0931	26
167.0871	215
181.1	19
183.1174	157
184.1219	21
185.0968	999
200.1148	11
201.1261	141
204.1108	31
207.1245	53
211.1132	63
215.1435	202
216.147	29
219.1379	33
225.1275	68
233.1536	65
247.0627	188
248.0673	21
253.1943	63
263.1773	59
275.0374	34
281.1899	259
282.1938	56
299.2006	437
300.2039	86
317.2107	234
319.121	41
