Mass spectrum: Alloisoimperatorin; LC-ESI-ITFT; MS2; CE: 45eV;  [M+H]+
Name: Alloisoimperatorin
Class: coumarin
Formula: C16H14O4
Exact mass: 270.0892
SMILES: CC(=CCC1=C2C(=C(C3=C1OC(=O)C=C3)O)C=CO2)C
InChI: InChI=1S/C16H14O4/c1-9(2)3-4-12-15-11(7-8-19-15)14(18)10-5-6-13(17)20-16(10)12/h3,5-8,18H,4H2,1-2H3
Instrument: LTQ Orbitrap XL, Thermo Scientfic; Dionex Ultimate 300
Instrument type: LC-ESI-ITFT
Ms type: MS2
Ion mode: POSITIVE
Ionization: ESI
Collision energy: 45eV
Column name: Alltima C18
Retention time: 23.73 min
Base peak: 271.0948
Precursor m/z: 271.0948
Precursor type: [M+H]+
m/z	relative intensity
159.0062	14
213.0169	21
226.9157	236
240.9421	13
253.022	999
