Mass spectrum: Resveratrol; LC-ESI-ITFT; MS2; CE: 100;  [M-H]-
Name: Resveratrol
Class: Phenylpropanoids and polyketides; Stilbenes
Formula: C14H12O3
Exact mass: 228.07864
SMILES: OC1=CC=C(\C=C\C2=CC(O)=CC(O)=C2)C=C1
InChI: InChI=1S/C14H12O3/c15-12-5-3-10(4-6-12)1-2-11-7-13(16)9-14(17)8-11/h1-9,15-17H/b2-1+
Instrument: Thermo Scientific Q-Exactive Focus
Instrument type: LC-ESI-ITFT
Ms type: MS2
Ion mode: NEGATIVE
Ionization: ESI
Collision energy: 100
Column name: Acquity CSHC18
Retention time: NA
Base peak: 227.07137
Precursor m/z: 227.07137
Precursor type: [M-H]-
m/z	relative intensity
59.9662	304
62.963	177
65.0385	222
75.961	999
76.9688	222
78.9578	614
79.9562	147
92.5136	392
93.0334	410
126.9039	229
