Mass spectrum: Taxifolin; LC-ESI-QFT; MS2; CE: NCE_15_30_84;  [M-H]-
Name: Taxifolin
Class: NA
Formula: C15H12O7
Exact mass: 304.0583
SMILES: C1=CC(=C(C=C1C2C(C(=O)C3=C(C=C(C=C3O2)O)O)O)O)O
InChI: InChI=1S/C15H12O7/c16-7-4-10(19)12-11(5-7)22-15(14(21)13(12)20)6-1-2-8(17)9(18)3-6/h1-5,14-19,21H
Instrument: Thermo_Qexactive_Plus
Instrument type: LC-ESI-QFT
Ms type: MS2
Ion mode: NEGATIVE
Ionization: ESI
Collision energy: NCE_15_30_84
Column name: Acquity CSHC18
Retention time: 4.449 min
Base peak: 303.0515
Precursor m/z: 303.0515
Precursor type: [M-H]-
Precursor intensity: 847045600
m/z	relative intensity
52.0135	17
56.3017	18
57.0331	19
65.0022	19
69.9219	20
74.6894	20
83.0127	21
95.0126	21
109.0281	21
123.044	22
124.0155	23
125.0256	24
126.0268	28
134.2983	29
136.4389	29
137.0495	30
149.0235	30
150.0317	31
151.0213	32
152.0105	33
153.0188	33
161.0238	34
168.562	34
174.0315	35
175.0406	36
177.0188	37
178.9976	39
181.0136	44
188.0489	51
189.0545	62
193.0493	65
199.0405	73
201.0197	76
213.0547	89
216.0429	90
217.0507	96
219.0298	99
231.0664	102
241.0518	117
243.0307	129
257.0477	133
259.0631	174
265.5334	198
275.0562	204
285.0414	233
286.0459	586
303.0491	999
