Mass spectrum: ChenoDeoxyCholicAcid; LC-ESI-QTOF; MS2; CE: 15 / 50;  [M-2H2O+H]+
Name: ChenoDeoxyCholicAcid
Class: NA
Formula: C24H40O4
Exact mass: 392.29266
SMILES: CC(CCC(=O)O)C1CCC2C1(CCC3C2C(CC4C3(CCC(C4)O)C)O)C
InChI: InChI=1S/C24H40O4/c1-14(4-7-21(27)28)17-5-6-18-22-19(9-11-24(17,18)3)23(2)10-8-16(25)12-15(23)13-20(22)26/h14-20,22,25-26H,4-13H2,1-3H3,(H,27,28)
Instrument: impact II
Instrument type: LC-ESI-QTOF
Ms type: MS2
Ion mode: POSITIVE
Ionization: ESI
Collision energy: 15 / 50
Column name: Acquity CSHC18
Retention time: 0.583 min
Base peak: 357.27930
Precursor m/z: 357.27930
Precursor type: [M-2H2O+H]+
m/z	relative intensity
357.6219	999
