Mass spectrum: Amentoflavone; LC-ESI-ITFT; MS2; CE: 45eV;  [M-H]-
Name: Amentoflavone
Class: Flavonoid
Formula: C30H18O10
Exact mass: 538.0900
SMILES: C1=CC(=CC=C1C2=CC(=O)C3=C(O2)C(=C(C=C3O)O)C4=C(C=CC(=C4)C5=CC(=O)C6=C(C=C(C=C6O5)O)O)O)O
InChI: InChI=1S/C30H18O10/c31-15-4-1-13(2-5-15)24-12-23(38)29-21(36)10-20(35)27(30(29)40-24)17-7-14(3-6-18(17)33)25-11-22(37)28-19(34)8-16(32)9-26(28)39-25/h1-12,31-36H
Instrument: LTQ Orbitrap XL, Thermo Scientfic; Dionex Ultimate 300
Instrument type: LC-ESI-ITFT
Ms type: MS2
Ion mode: NEGATIVE
Ionization: ESI
Collision energy: 45eV
Column name: Alltima C18
Retention time: 25.37 min
Base peak: 537.0787
Precursor m/z: 537.0787
Precursor type: [M-H]-
m/z	relative intensity
375.1251	999
399.1164	85
457.3721	1
469.0865	1
499.7026	1
510.1408	1
