Mass spectrum: 3,4-Dihydroxycinnamic acid; LC-ESI-QTOF; MS2; CE: 15.00;  [M+H]+
Name: 3,4-Dihydroxycinnamic acid
Class: NA
Formula: C9H8O4
Exact mass: 180.0423
SMILES: C1=CC(=C(C=C1C=CC(=O)O)O)O
InChI: InChI=1S/C9H8O4/c10-7-3-1-6(5-8(7)11)2-4-9(12)13/h1-5,10-11H,(H,12,13)
Instrument: Bruker MicrOTOF-Q
Instrument type: LC-ESI-QTOF
Ms type: MS2
Ion mode: POSITIVE
Ionization: ESI
Collision energy: 15.00
Column name: Acquity CSHC18
Retention time: NA
Base peak: 181.0495
Precursor m/z: 181.0495
Precursor type: [M+H]+
m/z	relative intensity
117.0318	47
135.0423	53
136.0461	83
145.0273	91
146.0291	519
163.0387	650
164.0418	999
