Mass spectrum: N-ACETYLMETHIONINE; LC-ESI-QFT; MS2; CE: 30eV;  [M+H]+
Name: N-ACETYLMETHIONINE
Class: NA
Formula: C7H13NO3S
Exact mass: 191.06161
SMILES: CSCCC(NC(C)=O)C(O)=O
InChI: InChI=1S/C7H13NO3S/c1-5(9)8-6(7(10)11)3-4-12-2/h6H,3-4H2,1-2H3,(H,8,9)(H,10,11)
Instrument: Q-Exactive Orbitrap, Thermo Scientfic; Ultimate 3000 HPLC, Thermo Scientfic
Instrument type: LC-ESI-QFT
Ms type: MS2
Ion mode: POSITIVE
Ionization: ESI
Collision energy: 30eV
Column name: Acquity CSHC18
Retention time: 3.692 min
Base peak: 192.0689
Precursor m/z: 192.0689
Precursor type: [M+H]+
Precursor intensity: 112
m/z	relative intensity
50.2358	1
52.6161	1
56.0503	169
60.2978	1
60.664	1
61.0114	133
61.7442	1
68.0502	3
74.0244	10
74.0607	3
74.7392	1
81.6533	1
82.6228	1
84.1836	1
87.0271	2
96.1215	1
98.0607	448
99.0642	12
102.0556	58
104.0534	939
105.0531	6
105.0568	25
105.4215	1
110.7869	1
117.5988	1
121.33	1
129.1711	1
133.0322	291
134.0356	3
140.1771	1
144.0659	999
145.0634	3
145.0691	36
146.0638	256
147.0673	7
147.6663	1
150.0587	667
151.0573	1
151.0622	23
174.0587	25
175.0621	1
190.5415	1
192.0693	4
192.1387	8
212.9089	1
