Mass spectrum: Indole-3-carboxaldehyde; LC-ESI-QTOF; MS2; CE: 50eV;  [M+H]+
Name: Indole-3-carboxaldehyde
Class: indole
Formula: C9H7NO
Exact mass: 145.0528
SMILES: C1=CC=C2C(=C1)C(=CN2)C=O
InChI: InChI=1S/C9H7NO/c11-6-7-5-10-9-4-2-1-3-8(7)9/h1-6,10H
Instrument: TIMS-TOF Pro, Bruker Daltonik; Elute UHPLC System, Bruker Daltonik
Instrument type: LC-ESI-QTOF
Ms type: MS2
Ion mode: POSITIVE
Ionization: ESI
Collision energy: 50eV
Column name: Acquity CSHC18
Retention time: 5.777 min
Base peak: 146.0593
Precursor m/z: 146.0593
Precursor type: [M+H]+
Precursor intensity: 19020.94
m/z	relative intensity
41.0379	32
63.949	3
65.0384	218
89.037	153
91.0545	599
117.0437	23
117.0574	405
118.0638	999
119.0623	77
145.0486	22
