Mass spectrum: CAY10580; ESI-TOF; MS2; CE: 0.6458333;  [M+H]+
Name: CAY10580
Class: NA
Formula: C19H35NO4
Exact mass: 341.25661
SMILES: CCCCCC(O)CCC1CCC(=O)N1CCCCCCC(=O)O
InChI: InChI=1S/C19H35NO4/c1-2-3-6-9-17(21)13-11-16-12-14-18(22)20(16)15-8-5-4-7-10-19(23)24/h16-17,21H,2-15H2,1H3,(H,23,24)
Instrument: waters xevo g2 TOF
Instrument type: ESI-TOF
Ms type: MS2
Ion mode: POSITIVE
Ionization: ESI
Collision energy: 0.6458333
Column name: Acquity CSHC18
Retention time: 3.679 min
Base peak: 342.26461
Precursor m/z: 342.26461
Precursor type: [M+H]+
m/z	relative intensity
69.0687	10
84.0448	186
95.0862	34
96.0452	46
98.0608	134
110.0607	41
111.0811	84
121.1022	17
124.077	80
128.1084	51
135.1175	17
138.0918	127
149.1343	10
166.1233	85
168.1391	13
176.1078	99
194.1184	372
195.1216	30
196.1699	262
197.1724	33
205.194	21
206.1532	40
208.1706	316
209.1742	46
212.1289	237
213.1305	21
226.1808	11
234.1159	12
278.2487	144
279.2512	11
288.2324	231
289.2346	95
295.0873	17
306.243	999
307.2446	192
308.2483	23
320.1538	79
324.1712	154
325.2579	53
342.2642	85
343.2689	32
