Mass spectrum: C12 Dihydroceramide (d18:0/12:0); ESI-TOF; MS2; CE: 6.0000000;  [M+H]+
Name: C12 Dihydroceramide (d18:0/12:0)
Class: NA
Formula: C30H61NO3
Exact mass: 483.46514
SMILES: [H]OC([H])([H])C([H])(N([H])C(=O)C([H])([H])C([H])([H])C([H])([H])C([H])([H])C([H])([H])C([H])([H])C([H])([H])C([H])([H])C([H])([H])C([H])([H])C([H])([H])[H])C([H])(O[H])C([H])([H])C([H])([H])C([H])([H])C([H])([H])C([H])([H])C([H])([H])C([H])([H])C([H])([H])C([H])([H])C([H])([H])C([H])([H])C([H])([H])C([H])([H])C([H])([H])C([H])([H])[H]
InChI: InChI=1S/C30H61NO3/c1-3-5-7-9-11-13-14-15-16-18-19-21-23-25-29(33)28(27-32)31-30(34)26-24-22-20-17-12-10-8-6-4-2/h28-29,32-33H,3-27H2,1-2H3,(H,31,34)
Instrument: waters xevo g2 TOF
Instrument type: ESI-TOF
Ms type: MS2
Ion mode: POSITIVE
Ionization: ESI
Collision energy: 6.0000000
Column name: Acquity CSHC18
Retention time: 9.969 min
Base peak: 484.47314
Precursor m/z: 484.47314
Precursor type: [M+H]+
m/z	relative intensity
261.7142	77
262.2161	37
262.717	5
263.71	1
269.7013	2
282.2272	9
282.7285	3
302.3057	1
466.4618	62
467.4657	21
468.4673	3
484.4723	999
485.4756	363
486.4799	65
487.4802	8
503.4461	72
503.9475	17
504.4488	6
504.95	2
505.4426	1
506.4544	69
507.4576	28
508.4597	2
511.4319	2
511.9314	4
512.4331	4
568.4252	21
569.4277	5
583.3931	2
584.3985	5
585.3988	1
586.3961	3
745.1795	37
745.6801	35
746.1819	7
746.6835	4
747.1809	2
753.1634	2
753.6646	1
754.1696	2
754.6648	2
755.1691	2
967.9356	70
968.9388	46
969.9356	16
970.9462	2
986.9105	35
987.4116	46
987.913	32
988.4152	15
988.9138	5
989.4096	3
989.9189	205
990.9214	140
991.9206	50
992.9261	12
994.8919	2
995.3991	2
995.8938	3
996.3985	2
996.9021	3
997.3976	1
1013.8595	1
1014.8789	2
1020.8473	1
1021.8555	5
1022.8562	1
1023.8576	3
1036.8579	5
1037.8634	3
1051.8876	7
1052.8916	6
1053.8938	2
