Mass spectrum: Methylimidazoleacetic acid; LC-ESI-ITFT; MS2; CE: 40;  [M+H]+
Name: Methylimidazoleacetic acid
Class: Organoheterocyclic compounds; Azoles; Imidazoles
Formula: C6H8N2O2
Exact mass: 140.05858
SMILES: CN1C=NC(CC(O)=O)=C1
InChI: InChI=1S/C6H8N2O2/c1-8-3-5(7-4-8)2-6(9)10/h3-4H,2H2,1H3,(H,9,10)
Instrument: Thermo Scientific Q-Exactive Focus
Instrument type: LC-ESI-ITFT
Ms type: MS2
Ion mode: POSITIVE
Ionization: ESI
Collision energy: 40
Column name: Acquity CSHC18
Retention time: 1.463 min
Base peak: 141.06586
Precursor m/z: 141.06586
Precursor type: [M+H]+
m/z	relative intensity
54.0344	631
68.0499	999
81.0451	355
92.524	18
95.0606	892
96.0685	22
99.5822	17
124.5487	17
153.155	20
154.6739	16
