Mass spectrum: Prostaglandin D1; ESI-TOF; MS2; CE: 6.0000000;  [M+H]+
Name: Prostaglandin D1
Class: NA
Formula: C20H34O5
Exact mass: 354.24062
SMILES: CCCCCC(C=CC1C(C(CC1=O)O)CCCCCCC(=O)O)O
InChI: InChI=1S/C20H34O5/c1-2-3-6-9-15(21)12-13-17-16(18(22)14-19(17)23)10-7-4-5-8-11-20(24)25/h12-13,15-18,21-22H,2-11,14H2,1H3,(H,24,25)
Instrument: waters xevo g2 TOF
Instrument type: ESI-TOF
Ms type: MS2
Ion mode: POSITIVE
Ionization: ESI
Collision energy: 6.0000000
Column name: Acquity CSHC18
Retention time: 3.607 min
Base peak: 355.24862
Precursor m/z: 355.24862
Precursor type: [M+H]+
m/z	relative intensity
81.0693	1
83.0854	1
93.07	1
98.9592	1
105.0689	1
107.0866	1
109.102	11
127.979	48
131.0859	1
133.1015	1
143.0853	1
144.96	6
145.1024	1
157.0979	1
161.1331	1
171.1222	1
173.1313	1
179.0907	41
185.1321	1
186.1004	6
188.0941	17
189.1257	1
197.102	25
219.1368	33
237.1472	47
275.0955	1
275.1983	7
277.2157	41
282.0567	21
283.2053	23
291.0684	1
291.2334	70
301.2162	388
302.2206	74
303.2263	6
304.3002	7
309.0784	16
319.2264	152
320.2291	139
337.238	206
338.2415	39
357.1742	1
373.1448	1
375.1839	1
377.2301	999
378.2343	232
390.1537	44
391.1568	103
392.158	17
394.196	19
409.1666	161
411.1693	60
413.1644	17
422.173	33
423.1828	8
440.1837	8
732.4782	13
763.3981	16
