Mass spectrum: Mannose 1-phosphate; LC-ESI-QTOF; MS2; CE: -10, -35, -60V;  [M-H]-
Name: Mannose 1-phosphate
Class: NA
Formula: C6H13O9P
Exact mass: 260.0297
SMILES: C(C1C(C(C(C(O1)OP(=O)(O)O)O)O)O)O
InChI: InChI=1S/C6H13O9P/c7-1-2-3(8)4(9)5(10)6(14-2)15-16(11,12)13/h2-10H,1H2,(H2,11,12,13)
Instrument: TripleToF 5600; Sciex
Instrument type: LC-ESI-QTOF
Ms type: MS2
Ion mode: NEGATIVE
Ionization: ESI
Collision energy: -10, -35, -60V
Column name: Acquity CSHC18
Retention time: 5.884 min
Base peak: 259.0270
Precursor m/z: 259.0270
Precursor type: [M-H]-
Precursor intensity: 29123.5
m/z	relative intensity
78.7126	12
78.9595	552
87.0462	84
96.9688	268
257.009	93
259.0111	951
259.027	999
