Mass spectrum: acyl sugar_S3:22 (5,5,12); LC-ESI-ITFT; MS2; CE: 35 NCE;  [M+FA-H]-
Name: acyl sugar_S3:22 (5,5,12)
Class: acyl sugar
Formula: C34H60O14
Exact mass: 692.3983
SMILES: CCCCCCCCCCCC(=O)OC1C(C(OC(C1OC(=O)C(C)CC)OC2(C(C(C(O2)CO)O)O)CO)CO)OC(=O)CC(C)C
InChI: InChI=1S/C34H60O14/c1-6-8-9-10-11-12-13-14-15-16-25(38)44-29-28(45-26(39)17-21(3)4)24(19-36)43-33(30(29)46-32(42)22(5)7-2)48-34(20-37)31(41)27(40)23(18-35)47-34/h21-24,27-31,33,35-37,40-41H,6-20H2,1-5H3
Instrument: LTQ Orbitrap XL, Thermo Scientfic; Aquity (U)HPLC, Waters
Instrument type: LC-ESI-ITFT
Ms type: MS2
Ion mode: NEGATIVE
Ionization: ESI
Collision energy: 35 NCE
Column name: Acquity CSHC18
Retention time: 40.407 min
Base peak: 737.3992
Precursor m/z: 737.3992
Precursor type: [M+FA-H]-
Precursor intensity: 732987.9
m/z	relative intensity
301.3863	75
505.2693	166
589.3234	999
684.0997	192
