Mass spectrum: Pentosalen; LC-ESI-ITFT; MS2; CE: 45eV;  [M+H]+
Name: Pentosalen
Class: coumarin
Formula: C16H14O4
Exact mass: 270.0892
SMILES: CC(=CCOC1=C2C(=CC3=C1OC=C3)C=CC(=O)O2)C
InChI: InChI=1S/C16H14O4/c1-10(2)5-7-19-16-14-12(6-8-18-14)9-11-3-4-13(17)20-15(11)16/h3-6,8-9H,7H2,1-2H3
Instrument: LTQ Orbitrap XL, Thermo Scientfic; Dionex Ultimate 300
Instrument type: LC-ESI-ITFT
Ms type: MS2
Ion mode: POSITIVE
Ionization: ESI
Collision energy: 45eV
Column name: Alltima C18
Retention time: 22.58 min
Base peak: 271.0964
Precursor m/z: 271.0964
Precursor type: [M+H]+
m/z	relative intensity
116.0551	10
158.8811	22
178.9521	31
200.9484	83
229.116	999
