Mass spectrum: Apigenin-7-O-glucoside; LC-ESI-QTOF; MS2; CE: 24.83;  [M-H]-
Name: Apigenin-7-O-glucoside
Class: NA
Formula: C21H20O10
Exact mass: 432.1056
SMILES: C1=CC(=CC=C1C2=CC(=O)C3=C(O2)C(=C(C=C3O)O)C4C(C(C(C(O4)CO)O)O)O)O
InChI: InChI=1S/C21H20O10/c22-7-14-17(27)18(28)19(29)21(31-14)16-11(25)5-10(24)15-12(26)6-13(30-20(15)16)8-1-3-9(23)4-2-8/h1-6,14,17-19,21-25,27-29H,7H2
Instrument: Bruker MicrOTOF-Q
Instrument type: LC-ESI-QTOF
Ms type: MS2
Ion mode: NEGATIVE
Ionization: ESI
Collision energy: 24.83
Column name: Acquity CSHC18
Retention time: NA
Base peak: 431.0984
Precursor m/z: 431.0984
Precursor type: [M-H]-
m/z	relative intensity
67.299	5
79.1346	5
84.0179	5
94.9026	6
98.2608	5
99.4922	6
109.7701	5
112.4286	4
117.0393	8
120.2489	5
121.0335	5
121.8259	4
122.4465	4
126.7846	5
127.346	4
128.2748	5
132.9174	6
138.4774	6
141.9912	4
144.6163	5
148.016	5
149.0239	56
150.1953	5
151.0027	42
151.408	4
152.9384	5
156.5289	5
159.0453	5
160.0446	5
161.0226	8
161.8341	5
163.4682	5
165.617	5
167.0439	5
167.8778	6
169.9244	6
171.4162	5
172.0394	5
174.4453	5
178.9733	6
180.1467	5
181.0049	5
183.0437	17
183.874	8
184.4907	6
185.0326	9
185.5917	5
187.0405	4
189.0163	7
189.6932	8
190.3233	5
191.0366	24
192.0929	5
192.5594	6
193.0154	8
193.4445	4
193.8787	5
195.0426	13
196.0496	33
197.0568	10
198.5943	6
199.0379	15
200.0451	42
200.8575	36
202.0589	11
202.5683	4
203.0581	7
204.0493	5
205.0062	5
206.8003	6
208.0985	5
209.1448	6
210.1691	5
211.0402	73
212.1628	36
213.0473	14
214.3229	5
215.0993	7
216.0864	5
217.0152	6
217.5752	4
219.0885	5
220.0463	5
221.0763	6
221.9202	4
222.5071	5
223.0428	12
224.2504	8
225.1052	33
226.0595	13
227.5495	16
232.4171	4
233.4202	4
238.9735	91
239.596	5
240.0923	140
240.7864	29
241.9948	5
243.1247	9
243.7271	6
244.2061	5
245.0491	6
246.0109	6
247.6476	5
249.0731	5
249.8123	5
250.4743	5
251.025	11
251.6605	5
253.0437	31
253.9812	5
256.7403	6
257.5109	5
261.9619	4
263.1233	4
263.7597	5
265.0514	12
265.6269	4
266.0527	5
266.975	58
270.9091	999
277.0431	7
281.0443	69
282.0494	80
283.0603	266
284.0613	43
291.0635	7
292.0662	5
293.0417	12
294.0448	5
295.0574	21
297.0531	5
299.063	5
308.0372	5
309.04	15
310.9994	275
312.0597	80
313.0614	15
314.0451	6
323.0544	86
324.057	15
325.0713	10
337.0682	5
339.0427	8
341.0655	149
342.0707	22
353.0677	15
377.0652	4
415.5695	4
430.7728	307
433.8593	5
