Mass spectrum: SALSOLINOL; LC-ESI-QFT; MS2; CE: 30eV;  [M+H]+
Name: SALSOLINOL
Class: NA
Formula: C10H13NO2
Exact mass: 179.09463
SMILES: CC1C2=CC(=C(C=C2CCN1)O)O
InChI: InChI=1S/C10H13NO2/c1-6-8-5-10(13)9(12)4-7(8)2-3-11-6/h4-6,11-13H,2-3H2,1H3
Instrument: Q-Exactive Orbitrap, Thermo Scientfic; Ultimate 3000 HPLC, Thermo Scientfic
Instrument type: LC-ESI-QFT
Ms type: MS2
Ion mode: POSITIVE
Ionization: ESI
Collision energy: 30eV
Column name: Acquity CSHC18
Retention time: 0.900 min
Base peak: 180.1019
Precursor m/z: 180.1019
Precursor type: [M+H]+
Precursor intensity: 159
m/z	relative intensity
59.5797	4
72.7739	4
73.6215	4
76.1983	4
80.4164	4
91.0547	18
97.7818	4
111.9686	28
115.0546	21
117.066	8
117.0702	203
118.5873	4
126.2405	4
129.9792	5
134.7922	4
135.0808	5
137.0598	245
145.0649	999
146.0681	32
151.0755	79
151.5552	4
159.2296	4
164.0227	4
164.0788	116
171.5803	5
181.0976	8
181.1054	210
198.9097	5
