Mass spectrum: Sinapyl alcohol; LC-ESI-QTOF; MS2; CE: 15;  [M-H]-
Name: Sinapyl alcohol
Class: NA
Formula: C11H14O4
Exact mass: 210.0892
SMILES: COC1=CC(=CC(=C1O)OC)C=CCO
InChI: InChI=1S/C11H14O4/c1-14-9-6-8(4-3-5-12)7-10(15-2)11(9)13/h3-4,6-7,12-13H,5H2,1-2H3
Instrument: Bruker MicrOTOF-Q
Instrument type: LC-ESI-QTOF
Ms type: MS2
Ion mode: NEGATIVE
Ionization: ESI
Collision energy: 15
Column name: Acquity CSHC18
Retention time: NA
Base peak: 209.0819
Precursor m/z: 209.0819
Precursor type: [M-H]-
m/z	relative intensity
47.0865	136
50.1669	168
50.201	141
57.281	168
75.5203	115
75.7265	184
81.6326	105
91.2217	115
117.0319	252
121.0272	189
123.0416	273
146.7818	210
151.0382	194
161.0177	462
176.0429	157
178.4696	220
179.0344	999
180.0397	210
194.0596	199
195.3315	184
197.2585	184
207.6338	215
236.0848	126
245.8771	110
250.4156	105
326.5483	162
380.3524	110
402.0355	157
403.7496	115
415.2292	105
506.0436	110
510.1544	131
529.7329	131
699.852	105
707.8382	141
820.4882	178
972.3646	126
