Mass spectrum: Allantoin; LC-ESI-ITFT; MS2; CE: 30;  [M-H]-
Name: Allantoin
Class: Organoheterocyclic compounds; Azoles; Imidazoles
Formula: C4H6N4O3
Exact mass: 158.04399
SMILES: NC(=O)NC1NC(=O)NC1=O
InChI: InChI=1S/C4H6N4O3/c5-3(10)6-1-2(9)8-4(11)7-1/h1H,(H3,5,6,10)(H2,7,8,9,11)
Instrument: Thermo Scientific Q-Exactive Focus
Instrument type: LC-ESI-ITFT
Ms type: MS2
Ion mode: NEGATIVE
Ionization: ESI
Collision energy: 30
Column name: Acquity CSHC18
Retention time: 0.926 min
Base peak: 157.03671
Precursor m/z: 157.03671
Precursor type: [M-H]-
m/z	relative intensity
59.0239	491
62.912	39
71.0238	314
75.8838	39
97.0031	999
113.5157	39
114.0296	299
122.8075	42
155.281	38
179.7501	45
