Mass spectrum: 3-Glc-28-Glc-Medicagenic acid; ESI-QTOF; MS2; CE: 30 eV;  [M-H]-
Name: 3-Glc-28-Glc-Medicagenic acid
Class: Saponin
Formula: C42H66O16
Exact mass: 826.4351
SMILES: CC1(C)CCC2(CCC3(C)C(=CCC4(C5(C)CC(C(C(C)(C5(CCC43C)[H])C(=O)O)(OC6(C(C(C(C(CO)(O6)[H])(O)[H])(O)[H])(O)[H])[H])[H])(O)[H])[H])C2(C1)[H])C(=O)OC7(C(C(C(C(CO)(O7)[H])(O)[H])(O)[H])(O)[H])[H]
InChI: InChI=1S/C42H66O16/c1-37(2)11-13-42(36(54)58-34-31(51)29(49)27(47)23(18-44)56-34)14-12-39(4)19(20(42)15-37)7-8-24-38(3)16-21(45)32(41(6,35(52)53)25(38)9-10-40(24,39)5)57-33-30(50)28(48)26(46)22(17-43)55-33/h7,20-34,43-51H,8-18H2,1-6H3,(H,52,53)
Instrument: Synapt (HDMS 1st gen)
Instrument type: ESI-QTOF
Ms type: MS2
Ion mode: NEGATIVE
Ionization: ESI
Collision energy: 30 eV
Column name: Acquity CSHC18
Retention time: 19.054 min
Base peak: 825.4265
Precursor m/z: 825.4265
Precursor type: [M-H]-
Precursor intensity: 6117
m/z	relative intensity
89.0223	15
113.023	21
179.0544	23
439.3184	26
440.3232	33
601.3757	94
825.4291	999
