Mass spectrum: zymosterone; ESI-TOF; MS2; CE: 0.6458333;  [M+H]+
Name: zymosterone
Class: NA
Formula: C27H42O
Exact mass: 382.32357
SMILES: [H]C(=C(C([H])([H])[H])C([H])([H])[H])C([H])([H])C([H])([H])C([H])(C([H])([H])[H])C2([H])(C([H])([H])C([H])([H])C1([H])(C3=C(C([H])([H])C([H])([H])C12(C([H])([H])[H]))C4(C([H])([H])[H])(C([H])([H])C([H])([H])C(=O)C([H])([H])C4([H])(C([H])([H])C3([H])([H])))))
InChI: InChI=1S/C27H42O/c1-18(2)7-6-8-19(3)23-11-12-24-22-10-9-20-17-21(28)13-15-26(20,4)25(22)14-16-27(23,24)5/h7,19-20,23-24H,6,8-17H2,1-5H3
Instrument: waters xevo g2 TOF
Instrument type: ESI-TOF
Ms type: MS2
Ion mode: POSITIVE
Ionization: ESI
Collision energy: 0.6458333
Column name: Acquity CSHC18
Retention time: 10.346 min
Base peak: 383.33157
Precursor m/z: 383.33157
Precursor type: [M+H]+
m/z	relative intensity
69.0714	111
81.0706	155
93.0705	106
95.0861	248
97.0658	76
99.0817	82
105.0708	114
107.086	177
109.102	273
119.0863	179
121.1014	234
123.1175	115
131.086	87
133.1015	180
135.1174	168
137.1322	44
145.1017	151
147.1176	173
149.1332	180
157.1015	66
159.1176	265
160.1228	29
161.1329	247
163.1493	52
171.1162	86
173.1332	196
174.135	24
175.149	77
185.1314	112
187.1489	107
189.1639	46
197.1323	48
199.1488	118
201.1635	82
203.1804	76
205.1955	40
211.1439	354
211.6454	42
213.1642	130
215.1783	87
217.1945	27
225.1636	31
227.1691	93
229.1579	25
231.1724	27
239.18	26
241.1957	67
243.1906	34
253.1946	74
255.2115	112
267.2113	24
269.227	34
271.2062	49
273.2225	20
281.2267	48
283.2421	55
309.2571	48
325.2893	99
353.2161	179
354.2184	27
365.321	465
366.323	145
381.3155	61
382.3238	77
383.3314	999
384.3344	301
