Mass spectrum: GALACTOSAMINE; LC-ESI-QFT; MS2; CE: 30eV;  [M+H]+
Name: GALACTOSAMINE
Class: NA
Formula: C6H13NO5
Exact mass: 179.07937
SMILES: C(C1C(C(C(C(O1)O)N)O)O)O
InChI: InChI=1S/C6H13NO5/c7-3-5(10)4(9)2(1-8)12-6(3)11/h2-6,8-11H,1,7H2
Instrument: Q-Exactive Orbitrap, Thermo Scientfic; Ultimate 3000 HPLC, Thermo Scientfic
Instrument type: LC-ESI-QFT
Ms type: MS2
Ion mode: POSITIVE
Ionization: ESI
Collision energy: 30eV
Column name: Acquity CSHC18
Retention time: 0.582 min
Base peak: 180.0867
Precursor m/z: 180.0867
Precursor type: [M+H]+
Precursor intensity: 193
m/z	relative intensity
51.2522	2
51.5726	2
52.3185	2
52.4594	2
54.948	2
58.0297	3
60.0452	40
61.0293	3
68.0502	6
69.0343	17
70.0659	19
71.9637	2
72.0452	999
73.0486	17
80.0503	36
80.6092	2
80.9435	2
81.0344	3
82.0659	3
82.8318	2
84.0452	63
85.0292	32
88.9529	3
89.8791	2
95.9742	10
96.0451	350
97.0292	15
97.0485	6
98.0608	114
99.0448	6
102.0558	10
103.4219	2
108.0451	12
109.0292	5
111.969	120
112.8881	2
114.0556	23
116.0712	11
117.9433	2
117.9804	21
126.0555	246
127.0395	21
127.0588	5
127.98	3
129.9795	69
132.0661	6
133.8599	2
139.9638	35
144.066	209
145.0692	4
152.6269	3
153.9808	4
155.9752	13
156.9752	6
157.9743	46
161.9702	4
162.0766	635
163.0798	24
166.6014	3
175.9625	5
180.0873	30
