Mass spectrum: C20:4 anandamide (AEA); ESI-TOF; MS2; CE: 6.0000000;  [M+H]+
Name: C20:4 anandamide (AEA)
Class: NA
Formula: C22H37NO2
Exact mass: 347.28243
SMILES: [H]OC([H])([H])C([H])([H])N([H])C(=O)C([H])([H])C([H])([H])C([H])([H])C([H])=C([H])C([H])([H])C([H])=C([H])C([H])([H])C([H])=C([H])C([H])([H])C([H])=C([H])C([H])([H])C([H])([H])C([H])([H])C([H])([H])C([H])([H])[H]
InChI: InChI=1S/C22H37NO2/c1-2-3-4-5-6-7-8-9-10-11-12-13-14-15-16-17-18-19-22(25)23-20-21-24/h6-7,9-10,12-13,15-16,24H,2-5,8,11,14,17-21H2,1H3,(H,23,25)
Instrument: waters xevo g2 TOF
Instrument type: ESI-TOF
Ms type: MS2
Ion mode: POSITIVE
Ionization: ESI
Collision energy: 6.0000000
Column name: Acquity CSHC18
Retention time: 7.141 min
Base peak: 348.29043
Precursor m/z: 348.29043
Precursor type: [M+H]+
m/z	relative intensity
79.0554	1
81.0706	2
91.0548	1
93.0707	2
95.0868	2
105.0707	3
107.0861	2
109.102	2
117.0706	1
119.0864	7
121.1019	9
128.0692	4
130.0859	7
131.0867	5
133.1022	9
135.1177	6
137.1156	2
144.1029	11
145.1026	6
147.1179	6
149.0971	8
151.15	1
156.1024	1
157.1023	4
158.1175	7
159.1174	4
161.1326	6
162.6038	4
163.1483	9
170.1135	5
171.1175	8
172.1271	5
173.133	5
175.1489	9
175.6232	1
176.1361	1
177.1643	14
182.1187	2
184.1321	10
184.6183	5
185.1332	9
186.1425	5
187.1492	6
189.1647	21
190.1674	2
191.1799	13
192.1843	1
193.6229	88
194.1248	22
194.6256	7
196.1335	13
198.1476	16
199.1499	8
201.1634	4
203.1803	65
204.1834	11
205.1948	4
210.1489	24
211.1514	2
212.1645	22
213.1656	6
214.1791	2
217.1588	2
222.1485	4
224.1652	17
225.1677	2
226.1807	12
228.1963	5
236.1653	7
238.1811	8
240.1951	4
242.2101	1
243.2123	6
245.2273	51
246.2301	10
250.1816	6
252.1971	5
254.2138	3
256.2264	1
259.2432	25
260.246	4
264.1969	7
266.2116	7
268.2297	8
269.2272	78
270.2301	17
278.2133	5
280.2283	1
282.2443	3
287.2379	185
288.241	43
289.2487	5
292.2292	2
305.2481	4
330.2798	38
331.2763	20
332.2704	2
343.1954	4
348.2904	999
349.2931	272
