Mass spectrum: Umbelliferone; LC-ESI-ITFT; MS2; CE: 60;  [M+H]+
Name: Umbelliferone
Class: Phenylpropanoids and polyketides; Coumarins and derivatives; Hydroxycoumarins
Formula: C9H6O3
Exact mass: 162.03169
SMILES: OC1=CC2=C(C=C1)C=CC(=O)O2
InChI: InChI=1S/C9H6O3/c10-7-3-1-6-2-4-9(11)12-8(6)5-7/h1-5,10H
Instrument: Thermo Scientific Q-Exactive Focus
Instrument type: LC-ESI-ITFT
Ms type: MS2
Ion mode: POSITIVE
Ionization: ESI
Collision energy: 60
Column name: Acquity CSHC18
Retention time: 2.015 min
Base peak: 163.03897
Precursor m/z: 163.03897
Precursor type: [M+H]+
m/z	relative intensity
50.0156	266
51.0235	999
53.0027	99
53.0391	254
55.0183	87
63.0234	187
65.039	101
77.0389	234
95.0494	393
105.0449	98
