Mass spectrum: catechol; LC-ESI-QFT; MS2; CE: NCE_15_30_53;  [M-H]-
Name: catechol
Class: NA
Formula: C6H6O2
Exact mass: 110.0368
SMILES: C1=CC=C(C(=C1)O)O
InChI: InChI=1S/C6H6O2/c7-5-3-1-2-4-6(5)8/h1-4,7-8H
Instrument: Thermo_Qexactive_Plus
Instrument type: LC-ESI-QFT
Ms type: MS2
Ion mode: NEGATIVE
Ionization: ESI
Collision energy: NCE_15_30_53
Column name: Acquity CSHC18
Retention time: 1.888 min
Base peak: 109.0282
Precursor m/z: 109.0282
Precursor type: [M-H]-
Precursor intensity: 701502500
m/z	relative intensity
65.0243	3
70.3489	5
80.0249	9
81.0333	22
91.0175	26
108.021	90
109.0278	999
