Mass spectrum: 5-trans Prostaglandin E2; ESI-TOF; MS2; CE: 6.0000000;  [M+H]+
Name: 5-trans Prostaglandin E2
Class: NA
Formula: C20H32O5
Exact mass: 352.22497
SMILES: CCCCCC(O)/C=C/[C@H]1C(O)CC(=O)C1C\C=C\CCCC(=O)O
InChI: InChI=1S/C20H32O5/c1-2-3-6-9-15(21)12-13-17-16(18(22)14-19(17)23)10-7-4-5-8-11-20(24)25/h4,7,12-13,15-17,19,21,23H,2-3,5-6,8-11,14H2,1H3,(H,24,25)/b7-4+,13-12+/t15?,16?,17-,19?/m1/s1
Instrument: waters xevo g2 TOF
Instrument type: ESI-TOF
Ms type: MS2
Ion mode: POSITIVE
Ionization: ESI
Collision energy: 6.0000000
Column name: Acquity CSHC18
Retention time: 3.663 min
Base peak: 353.23297
Precursor m/z: 353.23297
Precursor type: [M+H]+
m/z	relative intensity
104.9619	3
121.0998	3
133.0648	1
147.0816	3
149.0604	8
159.1179	3
167.0715	40
169.0428	3
187.1304	9
189.1086	17
191.1079	6
197.0984	2
201.1278	24
203.1091	10
205.1548	2
207.1034	20
211.1117	5
215.143	76
217.1226	5
225.1254	4
229.1954	50
230.2018	6
233.1538	15
245.1898	119
246.1939	10
247.2051	71
255.1751	15
257.1912	31
263.2004	138
264.2024	15
265.216	143
266.2191	27
271.2061	85
272.2075	13
273.1846	72
274.1904	12
275.1958	11
277.1748	5
281.1899	160
282.1923	23
289.2184	62
290.2195	7
291.1967	104
292.2005	11
299.2002	989
300.204	197
317.2121	999
318.2155	187
331.2275	7
333.1861	4
334.1674	3
335.2222	427
336.2249	95
337.225	7
354.1951	106
354.695	46
