Mass spectrum: Apigenin; LC-ESI-QTOF; MS2; CE: 35.00;  [M-H]-
Name: Apigenin
Class: NA
Formula: C15H10O5
Exact mass: 270.0528
SMILES: C1=CC(=CC=C1C2=CC(=O)C3=C(C=C(C=C3O2)O)O)O
InChI: InChI=1S/C15H10O5/c16-9-3-1-8(2-4-9)13-7-12(19)15-11(18)5-10(17)6-14(15)20-13/h1-7,16-18H
Instrument: Bruker MicrOTOF-Q
Instrument type: LC-ESI-QTOF
Ms type: MS2
Ion mode: NEGATIVE
Ionization: ESI
Collision energy: 35.00
Column name: Acquity CSHC18
Retention time: NA
Base peak: 269.0455
Precursor m/z: 269.0455
Precursor type: [M-H]-
m/z	relative intensity
117.03	999
118.04	113
