Mass spectrum: Geraniol; ESI-TOF; MS2; CE: 0.6458333;  [M+H]+
Name: Geraniol
Class: NA
Formula: C10H18O
Exact mass: 154.13577
SMILES: CC(C)=CCCC(C)=CCO
InChI: InChI=1S/C10H18O/c1-9(2)5-4-6-10(3)7-8-11/h5,7,11H,4,6,8H2,1-3H3
Instrument: waters xevo g2 TOF
Instrument type: ESI-TOF
Ms type: MS2
Ion mode: POSITIVE
Ionization: ESI
Collision energy: 0.6458333
Column name: Acquity CSHC18
Retention time: 3.864 min
Base peak: 155.14377
Precursor m/z: 155.14377
Precursor type: [M+H]+
m/z	relative intensity
57.0713	3
67.0556	102
68.059	4
69.0711	107
70.0747	4
71.0869	7
77.0396	17
79.0557	111
80.0596	10
81.071	585
82.0742	40
83.0866	71
84.0892	2
91.0551	146
92.0586	13
93.0524	135
94.0744	21
95.0864	999
96.0898	73
97.0364	17
103.0553	5
105.0707	250
106.0708	14
107.0863	332
108.0907	37
109.0502	165
110.1054	30
111.1172	32
117.0704	23
119.0499	15
120.0903	32
121.0654	8
122.1065	29
123.0645	108
124.0595	15
131.0859	24
132.0343	3
133.1018	176
134.1056	22
135.1176	199
136.1212	22
137.1986	100
138.137	20
139.1131	3
145.102	23
146.1084	4
147.0366	83
148.0596	15
149.0687	74
150.1365	17
151.1486	30
152.0725	2
153.1285	6
156.996	7
159.083	8
160.1232	18
161.1323	6
162.1367	31
163.1488	98
164.1519	12
165.1642	14
173.133	9
174.1357	5
175.1489	91
176.0558	4
177.1644	65
178.1675	9
179.1524	4
187.0835	1
188.0924	4
189.1642	113
190.1059	11
191.1799	60
192.122	4
193.1418	7
202.174	1
203.1801	98
204.1841	17
205.195	8
207.1217	1
209.123	1
215.1778	1
217.1957	126
218.1992	21
219.2059	1
231.1416	16
232.2149	6
235.17	3
273.3001	159
274.2616	73
275.2656	7
291.2688	38
292.2708	7
333.1673	4
337.1051	2
343.2097	2
689.2425	6
690.2468	2
709.2114	3
710.2116	1
731.1942	5
732.1967	2
