Mass spectrum: L-Threonine; LC-ESI-ITFT; MS2; CE: 60;  [M-H]-
Name: L-Threonine
Class: Organic acids and derivatives; Carboxylic acids and derivatives; Amino acids, peptides, and analogues
Formula: C4H9NO3
Exact mass: 119.05824
SMILES: C[C@@H](O)[C@H](N)C(O)=O
InChI: InChI=1S/C4H9NO3/c1-2(6)3(5)4(7)8/h2-3,6H,5H2,1H3,(H,7,8)/t2-,3+/m1/s1
Instrument: Thermo Scientific Q-Exactive Focus
Instrument type: LC-ESI-ITFT
Ms type: MS2
Ion mode: NEGATIVE
Ionization: ESI
Collision energy: 60
Column name: Acquity CSHC18
Retention time: 1.764 min
Base peak: 118.05097
Precursor m/z: 118.05097
Precursor type: [M-H]-
m/z	relative intensity
65.0823	757
84.4081	900
86.6669	852
87.0343	746
91.679	738
94.6328	822
95.4703	815
100.9248	999
102.9474	765
114.748	777
