Mass spectrum: 14-Hydroxy-Costunolide; LC-ESI-ITFT; MS2; CE: 50eV;  [M+H]+
Name: 14-Hydroxy-Costunolide
Class: Sesquiterpenelactone; Germacrolide
Formula: C15H20O3
Exact mass: 248.1412
SMILES: C=C1[C@@H]2CCC(=CCCC(C)=C[C@H]2OC1=O)CO
InChI: InChI=1S/C15H20O3/c1-10-4-3-5-12(9-16)6-7-13-11(2)15(17)18-14(13)8-10/h5,8,13-14,16H,2-4,6-7,9H2,1H3/t13-,14+/m0/s1
Instrument: Q Exactive Plus, ThermoFisher Scientific
Instrument type: LC-ESI-ITFT
Ms type: MS2
Ion mode: POSITIVE
Ionization: ESI
Collision energy: 50eV
Column name: Acquity CSHC18
Retention time: 7.180 min
Base peak: 249.1482
Precursor m/z: 249.1482
Precursor type: [M+H]+
Precursor intensity: 1864536
m/z	relative intensity
51.6763	68
61.0014	55
70.4799	140
77.7601	60
79.0127	63
84.9215	57
86.4753	71
92.3163	72
93.0704	80
95.0851	93
97.0823	64
105.0703	131
107.0856	140
117.0699	67
119.085	72
125.4835	72
131.0851	239
133.1009	65
143.0848	141
145.1009	84
147.1159	83
157.1001	142
159.1157	104
161.0967	73
173.1309	112
175.1469	69
185.1313	999
201.1284	79
203.1428	432
213.1269	114
219.1386	94
231.1388	704
249.1492	618
