Mass spectrum: NORVALINE; LC-ESI-QTOF; MS2; CE: 40;  [M-H]-
Name: NORVALINE
Class: NA
Formula: C5H11NO2
Exact mass: 117.07898
SMILES: CCC[C@@H](N)C(O)=O
InChI: InChI=1S/C5H11NO2/c1-2-3-4(6)5(7)8/h4H,2-3,6H2,1H3,(H,7,8)/t4-/m1/s1
Instrument: Agilent 6530Â Q-TOF LC/MS
Instrument type: LC-ESI-QTOF
Ms type: MS2
Ion mode: NEGATIVE
Ionization: ESI
Collision energy: 40
Column name: NA
Retention time: 0.200 min
Base peak: 116.07246
Precursor m/z: 116.07246
Precursor type: [M-H]-
Precursor intensity: 110
m/z	relative intensity
40.3353	970
79.9598	999
