Mass spectrum: Isoswertisin 2''-acetate; LC-ESI-QTOF; MS2; CE: 20-40eV;  [M+H]+
Name: Isoswertisin 2''-acetate
Class: Flavonoid C- glycosides
Formula: C24H24O11
Exact mass: 488.1319
SMILES: CC(=O)OC1(C(C(C(CO)(OC1(C2=C(C=C(C=3C(C=C(C4=CC=C(C=C4)O)OC32)=O)O)OC)[H])[H])(O)[H])(O)[H])[H]
InChI: InChI=1S/C24H24O11/c1-10(26)33-24-21(31)20(30)17(9-25)35-23(24)19-16(32-2)8-14(29)18-13(28)7-15(34-22(18)19)11-3-5-12(27)6-4-11/h3-8,17,20-21,23-25,27,29-31H,9H2,1-2H3
Instrument: Impact II, Bruker; Dionex 3000, Thermo Scientific
Instrument type: LC-ESI-QTOF
Ms type: MS2
Ion mode: POSITIVE
Ionization: ESI
Collision energy: 20-40eV
Column name: Acquity CSHC18
Retention time: 8.113 min
Base peak: 489.1381
Precursor m/z: 489.1381
Precursor type: [M+H]+
Precursor intensity: 9332.88
m/z	relative intensity
338.094	999
