Mass spectrum: 16:0(2R-OH) Ceramide; ESI-TOF; MS2; CE: 6.0000000;  [M+H]+
Name: 16:0(2R-OH) Ceramide
Class: NA
Formula: C34H67NO4
Exact mass: 553.50701
SMILES: [H]OC([H])([H])C([H])(N([H])C(=O)C([H])(O[H])C([H])([H])C([H])([H])C([H])([H])C([H])([H])C([H])([H])C([H])([H])C([H])([H])C([H])([H])C([H])([H])C([H])([H])C([H])([H])C([H])([H])C([H])([H])C([H])([H])[H])C([H])(O[H])C([H])=C([H])C([H])([H])C([H])([H])C([H])([H])C([H])([H])C([H])([H])C([H])([H])C([H])([H])C([H])([H])C([H])([H])C([H])([H])C([H])([H])C([H])([H])C([H])([H])[H]
InChI: InChI=1S/C34H67NO4/c1-3-5-7-9-11-13-15-17-19-20-22-24-26-28-32(37)31(30-36)35-34(39)33(38)29-27-25-23-21-18-16-14-12-10-8-6-4-2/h26,28,31-33,36-38H,3-25,27,29-30H2,1-2H3,(H,35,39)
Instrument: waters xevo g2 TOF
Instrument type: ESI-TOF
Ms type: MS2
Ion mode: POSITIVE
Ionization: ESI
Collision energy: 6.0000000
Column name: Acquity CSHC18
Retention time: 10.613 min
Base peak: 554.51501
Precursor m/z: 554.51501
Precursor type: [M+H]+
m/z	relative intensity
272.7262	46
273.2265	16
287.7303	27
296.7351	131
297.2375	62
518.4937	17
536.5042	999
537.507	388
538.5106	38
554.5132	228
555.5163	86
573.4881	62
573.9912	47
574.4895	21
576.4956	226
577.4995	87
578.5027	25
638.4669	56
639.4704	12
654.4373	19
850.2402	73
850.743	82
851.2416	44
851.7456	17
1108.0126	22
1109.0238	17
1126.9918	45
1127.4932	69
1127.996	58
1128.5004	32
1130.0002	666
1131.0044	515
1132.0072	200
1133.0064	36
1191.9638	21
1192.9712	18
