Mass spectrum: MALEATE; LC-ESI-QFT; MS2; CE: 30eV;  [M+H]+
Name: MALEATE
Class: NA
Formula: C4H4O4
Exact mass: 116.01096
SMILES: OC(=O)\C=C/C(O)=O
InChI: InChI=1S/C4H4O4/c5-3(6)1-2-4(7)8/h1-2H,(H,5,6)(H,7,8)/b2-1-
Instrument: Q-Exactive Orbitrap, Thermo Scientfic; Ultimate 3000 HPLC, Thermo Scientfic
Instrument type: LC-ESI-QFT
Ms type: MS2
Ion mode: POSITIVE
Ionization: ESI
Collision energy: 30eV
Column name: Acquity CSHC18
Retention time: 0.711 min
Base peak: 117.0182
Precursor m/z: 117.0182
Precursor type: [M+H]+
Precursor intensity: 153
m/z	relative intensity
52.3984	1
55.9352	7
56.0502	4
57.0343	1
57.9355	26
58.0659	43
58.9434	1
59.0499	2
59.0737	57
59.931	1
65.4786	1
66.9782	1
67.6092	1
68.9528	1
70.0658	6
71.0134	17
71.0498	1
71.93	5
72.0451	5
72.0814	5
72.9378	10
74.0607	15
74.0971	4
75.0266	3
75.9257	1
75.946	2
76.9338	1
88.0763	18
89.0603	7
89.0796	2
89.9642	2
90.9482	7
91.8297	1
93.0372	13
93.9565	2
93.9804	1
94.2338	1
98.0968	2
98.9618	1
99.0082	187
99.0446	2
100.0114	6
100.1127	4
102.9568	1
107.4763	1
107.9508	1
116.0709	9
116.1074	13
116.1438	4
116.4005	1
116.9668	5
116.9723	79
117.0186	5
117.0703	3
117.0741	1
117.1107	5
117.9461	1
117.9801	18
118.0866	999
118.1231	6
125.9612	2
