Mass spectrum: L-kynurenine; LC-ESI-QTOF; MS2; CE: 15.00;  [M+H]+
Name: L-kynurenine
Class: NA
Formula: C10H12N2O3
Exact mass: 208.0848
SMILES: C1=CC=C(C(=C1)C(=O)CC(C(=O)O)N)N
InChI: InChI=1S/C10H12N2O3/c11-7-4-2-1-3-6(7)9(13)5-8(12)10(14)15/h1-4,8H,5,11-12H2,(H,14,15)
Instrument: Bruker MicrOTOF-Q
Instrument type: LC-ESI-QTOF
Ms type: MS2
Ion mode: POSITIVE
Ionization: ESI
Collision energy: 15.00
Column name: Acquity CSHC18
Retention time: NA
Base peak: 209.0921
Precursor m/z: 209.0921
Precursor type: [M+H]+
m/z	relative intensity
117.0543	30
118.063	31
120.0421	34
132.0423	83
136.0744	93
137.077	112
146.0588	181
147.0617	181
150.0536	198
164.0717	199
174.0547	344
175.0579	830
192.0651	999
