Mass spectrum: Prostaglandin E1 Alcohol; ESI-TOF; MS2; CE: 6.0000000;  [M+H]+
Name: Prostaglandin E1 Alcohol
Class: NA
Formula: C20H36O4
Exact mass: 340.26136
SMILES: O=C1[C@H](CCCCCCCO)[C@@H](/C=C/[C@@H](O)CCCCC)[C@H](O)C1
InChI: InChI=1S/C20H36O4/c1-2-3-7-10-16(22)12-13-18-17(19(23)15-20(18)24)11-8-5-4-6-9-14-21/h12-13,16-18,20-22,24H,2-11,14-15H2,1H3/b13-12+/t16-,17+,18+,20+/m0/s1
Instrument: waters xevo g2 TOF
Instrument type: ESI-TOF
Ms type: MS2
Ion mode: POSITIVE
Ionization: ESI
Collision energy: 6.0000000
Column name: Acquity CSHC18
Retention time: 3.727 min
Base peak: 341.26936
Precursor m/z: 341.26936
Precursor type: [M+H]+
m/z	relative intensity
93.0705	8
105.0708	5
107.087	4
121.1024	13
135.1166	9
147.0984	5
149.1339	7
151.1147	7
161.1323	13
173.1325	3
175.1481	7
177.1289	28
181.1063	27
195.1392	52
196.1461	3
203.1426	39
205.1618	5
221.1535	9
233.2263	21
251.2374	109
259.2428	14
261.2212	40
263.2361	82
264.2396	9
269.2261	25
277.2138	27
278.2551	7
279.2314	63
280.233	6
287.237	208
288.2411	43
295.2609	3
305.2471	999
306.2501	205
307.243	5
323.2577	595
324.2608	124
325.2634	15
337.2738	27
