Mass spectrum: (S) - Mevalonic acid; LC-ESI-QTOF; MS2; CE: 15.00;  [M+H]+
Name: (S) - Mevalonic acid
Class: NA
Formula: C6H12O4
Exact mass: 148.0736
SMILES: CC(CCO)(CC(=O)O)O
InChI: InChI=1S/C6H12O4/c1-6(10,2-3-7)4-5(8)9/h7,10H,2-4H2,1H3,(H,8,9)
Instrument: Bruker MicrOTOF-Q
Instrument type: LC-ESI-QTOF
Ms type: MS2
Ion mode: POSITIVE
Ionization: ESI
Collision energy: 15.00
Column name: Acquity CSHC18
Retention time: NA
Base peak: 149.0808
Precursor m/z: 149.0808
Precursor type: [M+H]+
m/z	relative intensity
95.0456	54
113.0594	999
114.0617	66
