Mass spectrum: O-acyl sugar AS14; LC-ESI-QTOF; MS2; CE: 22.5eV; [M+Na]+
Name: O-acyl sugar AS14
Class: O-acyl sugar
Formula: C31H50O16
Exact mass: 678.3099
SMILES: CC(C)C(=O)O[C@H]1[C@H](O[C@H](COC(C)=O)[C@@H](OC(=O)C(C)CCC)[C@@H]1OC(=O)C(C)CC)O[C@]1(CO)O[C@H](CO)[C@@H](OC(C)=O)[C@@H]1O
InChI: InChI=1S/C31H50O16/c1-9-11-17(6)29(39)43-22-21(13-40-18(7)34)42-30(25(45-27(37)15(3)4)24(22)44-28(38)16(5)10-2)47-31(14-33)26(36)23(41-19(8)35)20(12-32)46-31/h15-17,20-26,30,32-33,36H,9-14H2,1-8H3/t16?,17?,20-,21-,22-,23-,24+,25-,26+,30-,31+/m1/s1
Instrument: Microtof-q MS
Instrument type: LC-ESI-QTOF
Ms type: MS2
Ion mode: POSITIVE
Ionization: ESI
Collision energy: 22.5eV
Column name: Acquity CSH C18 column (particle size 1.7 μm, column length 2.1 × 50 mm) (Waters)
Retention time: NA
Base peak: 701.2973
Precursor m/z: 701.2973
Precursor type: [M+Na]+
m/z	relative intensity
97.0299	40
205.0703	68
381.1552	41
395.1664	55
409.1778	21
497.2343	436
585.2137	29
599.2348	26
613.2455	16
701.2973	999
