Mass spectrum: ROSMARINATE; LC-ESI-QFT; MS2; CE: 30eV;  [M-H]-
Name: ROSMARINATE
Class: NA
Formula: C18H16O8
Exact mass: 360.08452
SMILES: OC(=O)[C@@H](CC1=CC(O)=C(O)C=C1)OC(=O)\C=C\C1=CC(O)=C(O)C=C1
InChI: InChI=1S/C18H16O8/c19-12-4-1-10(7-14(12)21)3-6-17(23)26-16(18(24)25)9-11-2-5-13(20)15(22)8-11/h1-8,16,19-22H,9H2,(H,24,25)/b6-3+/t16-/m1/s1
Instrument: Q-Exactive Orbitrap, Thermo Scientfic; Ultimate 3000 HPLC, Thermo Scientfic
Instrument type: LC-ESI-QFT
Ms type: MS2
Ion mode: NEGATIVE
Ionization: ESI
Collision energy: 30eV
Column name: Acquity CSHC18
Retention time: 7.443 min
Base peak: 359.0772
Precursor m/z: 359.0772
Precursor type: [M-H]-
Precursor intensity: 109
m/z	relative intensity
50.3429	2
51.7996	2
58.6858	2
62.7866	2
66.1029	2
69.6546	2
72.9915	120
78.0941	2
79.5889	2
87.2505	2
107.9617	2
123.0437	35
133.028	21
135.0437	65
147.077	2
161.0233	999
162.0266	35
163.5784	2
166.2503	2
175.0972	3
179.0341	180
180.0376	5
192.3521	2
197.0448	356
198.0483	18
236.1928	3
255.7387	2
332.5127	3
353.1702	3
377.5711	2
