Mass spectrum: myo-Inositol; LC-ESI-ITFT; MS2; CE: 20;  [M-H]-
Name: myo-Inositol
Class: Organic oxygen compounds; Organooxygen compounds; Alcohols and polyols
Formula: C6H12O6
Exact mass: 180.06339
SMILES: O[C@H]1[C@H](O)[C@@H](O)[C@H](O)[C@H](O)[C@@H]1O
InChI: InChI=1S/C6H12O6/c7-1-2(8)4(10)6(12)5(11)3(1)9/h1-12H/t1-,2-,3-,4+,5-,6-
Instrument: Thermo Scientific Q-Exactive Focus
Instrument type: LC-ESI-ITFT
Ms type: MS2
Ion mode: NEGATIVE
Ionization: ESI
Collision energy: 20
Column name: Acquity CSHC18
Retention time: 0.643 min
Base peak: 179.05611
Precursor m/z: 179.05611
Precursor type: [M-H]-
m/z	relative intensity
59.0127	269
71.0127	318
73.0283	152
85.0283	200
87.0076	999
97.0283	100
99.0076	290
101.0232	97
117.0182	101
161.0446	157
