Mass spectrum: Myricetin 3,7,3',4',5'-O-Methylether; LC-ESI-QTOF; MS2; CE: 50eV;  [M+H]+
Name: Myricetin 3,7,3',4',5'-O-Methylether
Class: Flavonol
Formula: C20H20O8
Exact mass: 388.1158
SMILES: COC1=CC(=C2C(=C1)OC(=C(C2=O)OC)C3=CC(=C(C(=C3)OC)OC)OC)O
InChI: InChI=1S/C20H20O8/c1-23-11-8-12(21)16-13(9-11)28-18(20(27-5)17(16)22)10-6-14(24-2)19(26-4)15(7-10)25-3/h6-9,21H,1-5H3
Instrument: TIMS-TOF Pro, Bruker Daltonik; Elute UHPLC System, Bruker Daltonik
Instrument type: LC-ESI-QTOF
Ms type: MS2
Ion mode: POSITIVE
Ionization: ESI
Collision energy: 50eV
Column name: Acquity CSHC18
Retention time: 10.815 min
Base peak: 389.1196
Precursor m/z: 389.1196
Precursor type: [M+H]+
Precursor intensity: 238521.4
m/z	relative intensity
85.0268	7
92.0055	13
135.0454	22
141.0589	10
150.0332	11
151.0415	18
160.0058	9
163.0365	23
167.0334	65
174.0279	12
203.0692	19
206.0669	14
213.0559	9
215.0615	20
231.0274	8
241.0108	10
243.0645	64
251.0193	9
257.0581	29
258.0511	40
259.0614	31
260.0583	11
265.0457	11
269.0828	10
271.054	24
272.058	18
273.0376	32
283.0589	22
284.0314	41
285.0698	21
287.0529	40
288.0591	63
295.0513	8
299.0519	26
300.0543	16
303.0851	49
311.056	15
313.0501	24
315.0478	12
316.0568	45
327.0499	45
328.0923	59
330.0696	22
331.0793	73
334.8517	14
342.5428	15
344.0479	13
345.0964	24
357.0917	14
359.0732	272
360.0751	33
373.0915	17
374.0974	315
375.1016	143
376.0917	11
389.0899	999
