Mass spectrum: 3,4-Dihydroxy-5-methoxybenzaldehyde-2; LC-ESI-QTOF; MS2; CE: 50eV;  [M-H]-
Name: 3,4-Dihydroxy-5-methoxybenzaldehyde-2
Class: Benzaldehyde derivative
Formula: C8H8O4
Exact mass: 168.0423
SMILES: COC1=CC(=CC(=C1O)O)C=O
InChI: InChI=1S/C8H8O4/c1-12-7-3-5(4-9)2-6(10)8(7)11/h2-4,10-11H,1H3
Instrument: TIMS-TOF Pro, Bruker Daltonik; Elute UHPLC System, Bruker Daltonik
Instrument type: LC-ESI-QTOF
Ms type: MS2
Ion mode: NEGATIVE
Ionization: ESI
Collision energy: 50eV
Column name: Acquity CSHC18
Retention time: 5.113 min
Base peak: 167.0332
Precursor m/z: 167.0332
Precursor type: [M-H]-
Precursor intensity: 3619.78
m/z	relative intensity
34.6347	35
57.3232	39
63.0224	89
65.0016	126
81.4783	56
91.0175	237
108.0195	999
152.0061	52
167.0312	194
