Mass spectrum: Abietospiran; APCI-ITFT; MS2; CE: 35 CID;  [M+H]+
Name: Abietospiran
Class: NA
Formula: C31H48O4
Exact mass: 484.35526
SMILES: CC1CC2(CC(C3(O2)CCC4(C3(CCC56C4CCC7C5(C6)CCC(C7(C)C)OC)C)C)C)OC1=O
InChI: InChI=1S/C31H48O4/c1-19-16-30(34-24(19)32)17-20(2)31(35-30)15-12-26(5)22-9-8-21-25(3,4)23(33-7)10-11-28(21)18-29(22,28)14-13-27(26,31)6/h19-23H,8-18H2,1-7H3
Instrument: Orbitrap Elite
Instrument type: APCI-ITFT
Ms type: MS2
Ion mode: POSITIVE
Ionization: APCI
Collision energy: 35 CID
Column name: Acquity CSHC18
Retention time: 0.092 min
Base peak: 485.36350
Precursor m/z: 485.36350
Precursor type: [M+H]+
Precursor intensity: 227075900
m/z	relative intensity
159.1192	60
163.1501	87
185.1188	39
199.1149	35
207.5044	28
241.1964	84
273.1866	149
285.1849	80
293.2265	90
297.2582	610
323.2737	999
327.2326	133
339.3065	46
355.2676	66
365.2468	79
407.3339	144
409.3105	158
449.3439	264
