Mass spectrum: Luteolin 7-methyl ether; LC-ESI-QTOF; MS2; CE: 50eV;  [M-H]-
Name: Luteolin 7-methyl ether
Class: Flavone
Formula: C16H12O6
Exact mass: 300.0634
SMILES: COC1=CC(=C2C(=C1)OC(=CC2=O)C3=CC(=C(C=C3)O)O)O
InChI: InChI=1S/C16H12O6/c1-21-9-5-12(19)16-13(20)7-14(22-15(16)6-9)8-2-3-10(17)11(18)4-8/h2-7,17-19H,1H3
Instrument: TIMS-TOF Pro, Bruker Daltonik; Elute UHPLC System, Bruker Daltonik
Instrument type: LC-ESI-QTOF
Ms type: MS2
Ion mode: NEGATIVE
Ionization: ESI
Collision energy: 50eV
Column name: Acquity CSHC18
Retention time: 8.199 min
Base peak: 299.0511
Precursor m/z: 299.0511
Precursor type: [M-H]-
Precursor intensity: 143113.3
m/z	relative intensity
24.7212	3
49.1231	2
50.679	2
53.2291	2
63.0236	88
64.0277	3
65.0029	61
66.0059	3
69.9813	4
74.6427	4
77.0387	2
83.0125	76
84.9909	4
89.0025	2
92.0281	4
94.005	18
95.0136	4
104.0242	7
105.0333	5
106.0408	2
107.0124	109
107.3274	2
108.0162	5
109.0296	2
111.3485	2
111.8865	4
120.0214	4
121.0271	6
121.9986	16
123.0073	2
124.0166	3
130.17	3
132.0205	39
132.2941	2
133.0278	322
133.2498	2
133.3153	3
133.5977	2
134.0317	28
135.0064	5
136.0123	2
139.3665	2
143.167	2
144.0191	3
146.0356	4
147.0071	2
148.0125	13
149.0579	4
149.993	13
150.8884	6
151.0007	46
151.4467	4
152.0041	5
153.0927	4
155.0479	5
157.0292	5
158.0365	4
159.0451	2
161.6446	3
163.0006	3
164.3703	2
167.0474	5
170.0339	3
171.0449	5
172.8292	3
179.0615	2
182.3744	2
183.0415	6
184.0497	3
185.0222	5
187.0394	3
193.4964	2
199.0385	3
200.0452	6
204.8077	2
210.0282	2
211.028	2
215.0299	3
226.9429	2
227.0356	9
229.0571	2
245.2281	3
256.0385	3
283.9608	3
284.0273	378
284.3117	2
284.5138	2
284.9262	3
285.0326	50
286.0344	4
298.8439	2
299.0511	999
299.1711	2
299.3822	3
299.5394	5
