Mass spectrum: Tri-coumaroyl spermidine; LC-ESI-ITFT; MS2; CE: 35eV;  [M+H]+
Name: Tri-coumaroyl spermidine
Class: Phenolamide
Formula: C34H37N3O6
Exact mass: 583.2682
SMILES: C1=CC(=CC=C1C=CC(=O)NCCCCN(CCCNC(=O)C=CC2=CC=C(C=C2)O)C(=O)C=CC3=CC=C(C=C3)O)O
InChI: InChI=1S/C34H37N3O6/c38-29-13-4-26(5-14-29)10-19-32(41)35-22-1-2-24-37(34(43)21-12-28-8-17-31(40)18-9-28)25-3-23-36-33(42)20-11-27-6-15-30(39)16-7-27/h4-21,38-40H,1-3,22-25H2,(H,35,41)(H,36,42)
Instrument: LTQ Orbitrap XL, Thermo Scientfic; Dionex Ultimate 300
Instrument type: LC-ESI-ITFT
Ms type: MS2
Ion mode: POSITIVE
Ionization: ESI
Collision energy: 35eV
Column name: Lichrospher C18 Column 250*4 5um, Interchim
Retention time: 60.84 min
Base peak: 584.2752
Precursor m/z: 584.2752
Precursor type: [M+H]+
m/z	relative intensity
202.9869	1
204.002	20
217.081	10
218.0569	1
272.2006	1
274.342	4
275.2357	20
292.3462	2
300.1094	1
318.1811	9
354.3085	1
420.2441	999
421.3409	10
438.1853	709
464.1169	7
