Mass spectrum: Acetylcysteine; LC-ESI-ITFT; MS2; CE: 10;  [M-H]-
Name: Acetylcysteine
Class: Organic acids and derivatives; Carboxylic acids and derivatives; Amino acids, peptides, and analogues
Formula: C5H9NO3S
Exact mass: 163.03031
SMILES: CC(=O)N[C@@H](CS)C(O)=O
InChI: InChI=1S/C5H9NO3S/c1-3(7)6-4(2-10)5(8)9/h4,10H,2H2,1H3,(H,6,7)(H,8,9)/t4-/m0/s1
Instrument: Thermo Scientific Q-Exactive Focus
Instrument type: LC-ESI-ITFT
Ms type: MS2
Ion mode: NEGATIVE
Ionization: ESI
Collision energy: 10
Column name: Acquity CSHC18
Retention time: 0.359 min
Base peak: 162.02304
Precursor m/z: 162.02304
Precursor type: [M-H]-
m/z	relative intensity
63.9612	17
84.0442	999
92.5134	35
98.2005	18
135.4453	17
136.8271	18
162.0187	27
162.022	235
180.471	21
182.0685	19
