Mass spectrum: SALSOLINOL; LC-ESI-QTOF; MS2; CE: 20;  [M+H]+
Name: SALSOLINOL
Class: NA
Formula: C10H13NO2
Exact mass: 179.09463
SMILES: [H][C@@]1(C)NCCC2=CC(O)=C(O)C=C12
InChI: InChI=1S/C10H13NO2/c1-6-8-5-10(13)9(12)4-7(8)2-3-11-6/h4-6,11-13H,2-3H2,1H3/t6-/m0/s1
Instrument: Agilent 6530Â Q-TOF LC/MS
Instrument type: LC-ESI-QTOF
Ms type: MS2
Ion mode: POSITIVE
Ionization: ESI
Collision energy: 20
Column name: NA
Retention time: 0.200 min
Base peak: 180.10128
Precursor m/z: 180.10128
Precursor type: [M+H]+
Precursor intensity: 85.5
m/z	relative intensity
41.0515	16
43.0339	17
44.0663	17
51.0369	17
52.0305	18
53.0419	18
55.0388	18
56.0532	18
57.0466	18
58.0662	18
62.0157	19
63.0331	19
65.0649	19
66.0532	19
67.0538	19
68.0453	19
69.0202	20
70.0261	20
70.331	20
71.0151	21
71.7608	21
75.0256	21
77.0729	21
77.3345	21
78.0589	21
79.1368	21
79.3963	22
80.0615	22
81.0723	22
89.0596	22
90.044	22
91.5871	22
92.2886	22
92.3893	22
92.5999	22
93.0681	23
94.0604	23
95.0803	24
101.0385	24
102.0781	24
103.0794	24
104.068	24
105.0878	25
105.3552	27
105.4641	27
105.5995	28
105.8595	30
106.0712	31
107.139	32
107.4479	33
108.0547	33
109.0758	37
110.0567	38
114.5998	38
114.8429	39
117.2381	41
120.0081	42
121.0755	42
122.0581	42
123.0796	45
124.0639	53
126.0539	53
127.2568	54
127.6562	57
127.9009	60
128.0565	71
130.0651	71
131.0506	77
132.053	78
133.0923	81
134.0893	84
134.2519	87
135.1664	94
135.5165	103
135.6934	104
136.0738	114
136.2782	114
137.1178	116
137.4359	119
143.0575	134
143.895	159
144.0807	168
144.5213	169
144.7522	170
146.0439	218
147.4121	230
148.0819	260
148.2797	340
149.0518	351
150.0646	351
151.1304	375
151.5238	434
151.8072	440
151.9061	461
152.1534	528
160.0725	532
161.0784	572
162.0983	634
162.3404	639
163.8682	714
164.9651	810
165.078	906
165.17	940
180.4016	999
181.0305	16
181.2581	17
