Mass spectrum: acteoside; LC-ESI-ITFT; MS2; CE: 0.3;  [M+NH4]+
Name: acteoside
Class: phenylpropanoid glycosides
Formula: C29H36O15
Exact mass: 624.2054
SMILES: CC1C(C(C(C(O1)OC2C(C(OC(C2OC(=O)C=CC3=CC(=C(C=C3)O)O)CO)OCCC4=CC(=C(C=C4)O)O)O)O)O)O
InChI: InChI=1S/C29H36O15/c1-13-22(36)23(37)24(38)29(41-13)44-27-25(39)28(40-9-8-15-3-6-17(32)19(34)11-15)42-20(12-30)26(27)43-21(35)7-4-14-2-5-16(31)18(33)10-14/h2-7,10-11,13,20,22-34,36-39H,8-9,12H2,1H3
Instrument: LTQ-Orbitrap XL hybrid mass spectrometer (Thermo Scientific)
Instrument type: LC-ESI-ITFT
Ms type: MS2
Ion mode: POSITIVE
Ionization: ESI
Collision energy: 0.3
Column name: Acquity CSHC18
Retention time: 5.288 min
Base peak: 642.2366
Precursor m/z: 642.2366
Precursor type: [M+NH4]+
Precursor intensity: 1174309
m/z	relative intensity
212.5866	59
245.5747	64
254.3924	59
263.4027	53
285.4465	64
293.6218	68
300.7868	60
309.0967	86
323.5282	72
325.0907	828
335.879	81
345.3688	62
351.2502	67
358.5226	67
370.735	60
376.0266	66
376.89	80
386.8109	84
392.4091	68
407.5874	94
412.0927	80
414.796	73
417.1552	74
422.3872	87
430.2132	96
435.1145	84
437.7494	75
446.8783	92
450.6748	83
452.0859	76
453.1198	80
459.2859	109
466.4841	72
471.1465	999
471.8725	86
472.2041	85
479.154	220
486.5812	85
487.4536	67
493.4351	75
493.4759	77
503.9205	86
510.2139	74
510.2563	79
513.7028	71
515.536	75
521.889	83
529.3455	86
529.5243	76
532.5444	87
533.5903	88
536.6558	82
547.1745	83
549.0346	78
551.5938	94
552.4204	78
557.174	75
560.5707	103
563.2729	84
571.8218	78
577.7251	110
584.0845	87
586.001	80
594.0156	91
596.129	112
602.2648	82
606.0303	77
618.1152	86
620.7933	99
625.2109	342
626.8044	76
627.6753	91
630.9652	120
631.3904	86
633.9471	82
