Mass spectrum: H-Tyr-Ile-OH; LC-ESI-QTOF; MS2; CE: 31.75;  [2M-H]-
Name: H-Tyr-Ile-OH
Class: NA
Formula: C15H22N2O4
Exact mass: 294.1580
SMILES: CCC(C)C(C(=O)O)NC(=O)C(CC1=CC=C(C=C1)O)N
InChI: InChI=1S/C15H22N2O4/c1-3-9(2)13(15(20)21)17-14(19)12(16)8-10-4-6-11(18)7-5-10/h4-7,9,12-13,18H,3,8,16H2,1-2H3,(H,17,19)(H,20,21)
Instrument: Bruker MicrOTOF-Q
Instrument type: LC-ESI-QTOF
Ms type: MS2
Ion mode: NEGATIVE
Ionization: ESI
Collision energy: 31.75
Column name: Acquity CSHC18
Retention time: NA
Base peak: 587.3087
Precursor m/z: 587.3087
Precursor type: [2M-H]-
m/z	relative intensity
107.05	20
108.06	2
111.84	1
119.05	1
130.09	41
131.09	2
134.06	3
140.99	1
141.1	35
142.11	2
143.12	3
162.06	1
179.08	1
186.4	1
187.11	29
188.11	3
231.15	1
232.13	39
233.14	7
234.14	1
247.14	1
249.16	50
250.16	9
251.17	1
275.14	2
276.13	1
291.61	1
291.72	1
291.79	1
291.85	1
292.02	6
292.17	3
292.27	2
292.4	3
292.54	1
292.64	2
292.79	3
293.15	999
293.4	3
293.59	3
293.94	3
294.15	198
294.39	1
294.48	1
294.62	1
294.67	1
294.73	1
294.87	1
294.95	1
295.06	1
295.16	24
295.96	1
296.16	2
