Mass spectrum: OPHTHALMATE; LC-ESI-QFT; MS2; CE: 30eV;  [M-H]-
Name: OPHTHALMATE
Class: NA
Formula: C11H19N3O6
Exact mass: 289.12739
SMILES: CC[C@H](NC(=O)CC[C@H](N)C(O)=O)C(=O)NCC(O)=O
InChI: InChI=1S/C11H19N3O6/c1-2-7(10(18)13-5-9(16)17)14-8(15)4-3-6(12)11(19)20/h6-7H,2-5,12H2,1H3,(H,13,18)(H,14,15)(H,16,17)(H,19,20)/t6-,7-/m0/s1
Instrument: Q-Exactive Orbitrap, Thermo Scientfic; Ultimate 3000 HPLC, Thermo Scientfic
Instrument type: LC-ESI-QFT
Ms type: MS2
Ion mode: NEGATIVE
Ionization: ESI
Collision energy: 30eV
Column name: Acquity CSHC18
Retention time: 0.827 min
Base peak: 288.1201
Precursor m/z: 288.1201
Precursor type: [M-H]-
Precursor intensity: 194
m/z	relative intensity
74.0231	35
82.0282	39
100.0387	50
102.0544	55
112.0387	65
115.086	68
125.0704	87
127.0496	114
128.0337	132
141.0654	143
145.0604	151
146.0443	152
151.0862	152
152.0701	179
159.0761	189
167.0449	198
169.0969	215
185.0555	301
195.0764	311
196.0798	539
208.1081	565
213.0871	586
226.1189	639
270.1093	706
288.1199	999
