Mass spectrum: D-Alanine; LC-ESI-ITFT; MS2; CE: 100;  [M+H]+
Name: D-Alanine
Class: Organic acids and derivatives; Carboxylic acids and derivatives; Amino acids, peptides, and analogues
Formula: C3H7NO2
Exact mass: 89.04768
SMILES: C[C@@H](N)C(O)=O
InChI: InChI=1S/C3H7NO2/c1-2(4)3(5)6/h2H,4H2,1H3,(H,5,6)/t2-/m1/s1
Instrument: Thermo Scientific Q-Exactive Focus
Instrument type: LC-ESI-ITFT
Ms type: MS2
Ion mode: POSITIVE
Ionization: ESI
Collision energy: 100
Column name: Acquity CSHC18
Retention time: 2.135 min
Base peak: 90.05496
Precursor m/z: 90.05496
Precursor type: [M+H]+
m/z	relative intensity
55.5175	893
60.4886	932
66.3112	916
73.1571	875
78.5881	896
84.0521	916
88.9734	908
90.2396	893
90.7546	999
101.8826	951
