Mass spectrum: Alpha-Hydroxyisobutyric acid; LC-ESI-ITFT; MS2; CE: 40;  [M-H]-
Name: Alpha-Hydroxyisobutyric acid
Class: Organic acids and derivatives; Hydroxy acids and derivatives; Alpha hydroxy acids and derivatives
Formula: C4H8O3
Exact mass: 104.04734
SMILES: CC(C)(O)C(O)=O
InChI: InChI=1S/C4H8O3/c1-4(2,7)3(5)6/h7H,1-2H3,(H,5,6)
Instrument: Thermo Scientific Q-Exactive Focus
Instrument type: LC-ESI-ITFT
Ms type: MS2
Ion mode: NEGATIVE
Ionization: ESI
Collision energy: 40
Column name: Acquity CSHC18
Retention time: 1.482 min
Base peak: 103.04007
Precursor m/z: 103.04007
Precursor type: [M-H]-
m/z	relative intensity
57.0334	950
58.585	846
72.0926	867
79.5009	861
83.2724	893
89.2146	937
91.9332	999
115.5276	906
116.0903	868
119.4931	982
