Mass spectrum: Vitexin; LC-ESI-QTOF; MS2; CE: 50eV;  [M+H]+
Name: Vitexin
Class: Flavone
Formula: C21H20O10
Exact mass: 432.1056
SMILES: C1=CC(=CC=C1C2=CC(=O)C3=C(O2)C(=C(C=C3O)O)C4C(C(C(C(O4)CO)O)O)O)O
InChI: InChI=1S/C21H20O10/c22-7-14-17(27)18(28)19(29)21(31-14)16-11(25)5-10(24)15-12(26)6-13(30-20(15)16)8-1-3-9(23)4-2-8/h1-6,14,17-19,21-25,27-29H,7H2
Instrument: TIMS-TOF Pro, Bruker Daltonik; Elute UHPLC System, Bruker Daltonik
Instrument type: LC-ESI-QTOF
Ms type: MS2
Ion mode: POSITIVE
Ionization: ESI
Collision energy: 50eV
Column name: Acquity CSHC18
Retention time: 5.089 min
Base peak: 433.1092
Precursor m/z: 433.1092
Precursor type: [M+H]+
Precursor intensity: 298409.7
m/z	relative intensity
79.0172	2
79.6149	4
121.0292	17
131.0484	4
145.0226	4
152.01	3
160.0516	2
165.0154	6
167.0353	6
168.7025	2
183.0435	3
188.0314	3
205.0092	3
211.0365	3
233.0428	2
241.0474	4
243.0666	8
249.057	3
253.0869	2
255.0621	7
256.069	22
259.0634	4
262.0573	3
271.0534	4
279.0577	3
283.0421	21
284.048	51
285.0718	17
293.0807	3
295.0587	33
296.0652	9
297.0707	39
299.0457	3
305.5864	4
308.0654	5
311.0523	7
313.0465	23
314.0663	37
315.0724	8
321.1053	4
323.0872	11
324.0604	4
325.0694	13
327.0749	5
337.0581	7
338.0755	6
343.0766	16
344.0853	9
351.072	9
352.1163	2
356.0812	6
361.0052	4
367.0809	47
379.0584	8
380.0832	4
397.0746	81
398.0901	26
399.0911	4
415.0692	23
416.0913	30
417.1001	9
420.4769	1
432.8715	5
433.0333	14
433.1125	999
433.423	3
