Mass spectrum: 3-HYDROXYMETHYLGLUTARATE; LC-ESI-QTOF; MS2; CE: 10;  [M-H]-
Name: 3-HYDROXYMETHYLGLUTARATE
Class: NA
Formula: C6H10O5
Exact mass: 162.05282
SMILES: CC(O)(CC(O)=O)CC(O)=O
InChI: InChI=1S/C6H10O5/c1-6(11,2-4(7)8)3-5(9)10/h11H,2-3H2,1H3,(H,7,8)(H,9,10)
Instrument: Agilent 6530Â Q-TOF LC/MS
Instrument type: LC-ESI-QTOF
Ms type: MS2
Ion mode: NEGATIVE
Ionization: ESI
Collision energy: 10
Column name: NA
Retention time: 0.200 min
Base peak: 161.04515
Precursor m/z: 161.04515
Precursor type: [M-H]-
Precursor intensity: 116
m/z	relative intensity
41.0046	248
57.0517	270
59.0175	345
99.0564	349
101.0265	610
161.0524	999
