Mass spectrum: F6P; LC-ESI-QTOF; MS2; CE: 60;  [M-H]-
Name: F6P
Class: NA
Formula: C6H13O9P
Exact mass: 260.02972
SMILES: C(C(C(C(C(=O)CO)O)O)O)OP(=O)(O)O
InChI: InChI=1S/C6H13O9P/c7-1-3(8)5(10)6(11)4(9)2-15-16(12,13)14/h4-7,9-11H,1-2H2,(H2,12,13,14)
Instrument: impact II
Instrument type: LC-ESI-QTOF
Ms type: MS2
Ion mode: NEGATIVE
Ionization: ESI
Collision energy: 60
Column name: Acquity CSHC18
Retention time: 1.740 min
Base peak: 259.02270
Precursor m/z: 259.02270
Precursor type: [M-H]-
m/z	relative intensity
55.0189	4
59.0137	5
62.9643	1
71.0138	10
78.9589	999
78.9699	88
78.999	12
79.0219	14
79.0303	22
79.0432	12
79.0726	4
79.0797	8
79.0945	2
79.1133	2
79.1372	1
79.147	1
79.1528	1
79.1682	1
79.18	2
79.2021	1
79.2187	2
79.2292	1
79.2409	1
79.2571	1
79.2784	1
79.2838	1
79.3022	1
79.3095	1
79.3184	1
79.3577	1
96.9695	34
