Mass spectrum: 2-HYDROXY-4-(METHYLTHIO)BUTANOATE; LC-ESI-QFT; MS2; CE: 30eV;  [M+H]+
Name: 2-HYDROXY-4-(METHYLTHIO)BUTANOATE
Class: NA
Formula: C5H10O3S
Exact mass: 150.03507
SMILES: CSCCC(O)C(O)=O
InChI: InChI=1S/C5H10O3S/c1-9-3-2-4(6)5(7)8/h4,6H,2-3H2,1H3,(H,7,8)
Instrument: Q-Exactive Orbitrap, Thermo Scientfic; Ultimate 3000 HPLC, Thermo Scientfic
Instrument type: LC-ESI-QFT
Ms type: MS2
Ion mode: POSITIVE
Ionization: ESI
Collision energy: 30eV
Column name: Acquity CSHC18
Retention time: 2.319 min
Base peak: 151.0423
Precursor m/z: 151.0423
Precursor type: [M+H]+
Precursor intensity: 105
m/z	relative intensity
52.4486	8
57.0342	152
58.6687	5
61.0114	999
62.0147	12
64.1418	6
64.3335	7
66.6947	6
67.0549	11
72.2219	6
73.2794	6
75.0084	7
75.2921	5
79.0548	12
81.0705	30
85.029	114
89.0603	29
91.0549	9
92.7857	8
93.0704	52
95.0497	31
95.086	34
103.0395	607
104.0428	10
105.0373	503
105.0703	27
106.0406	10
107.086	351
109.0652	49
109.1017	79
110.477	6
115.5135	6
119.0604	8
123.081	16
123.1171	48
123.9647	13
133.1013	36
150.0924	7
151.112	124
152.0166	13
