Mass spectrum: PTERIN; LC-ESI-QTOF; MS2; CE: 20;  [M+H]+
Name: PTERIN
Class: NA
Formula: C6H5N5O
Exact mass: 163.04941
SMILES: NC1=NC2=NC=CN=C2C(=O)N1
InChI: InChI=1S/C6H5N5O/c7-6-10-4-3(5(12)11-6)8-1-2-9-4/h1-2H,(H3,7,9,10,11,12)
Instrument: Agilent 6530Â Q-TOF LC/MS
Instrument type: LC-ESI-QTOF
Ms type: MS2
Ion mode: POSITIVE
Ionization: ESI
Collision energy: 20
Column name: NA
Retention time: 0.200 min
Base peak: 164.05941
Precursor m/z: 164.05941
Precursor type: [M+H]+
Precursor intensity: 42.5
m/z	relative intensity
63.0183	144
67.0269	154
69.0453	194
92.0387	230
94.0426	310
96.0625	354
119.0523	388
121.0586	412
147.0355	786
164.0623	999
