Mass spectrum: 3-Phenoxybenzoic acid; LC-ESI-ITFT; MS2; CE: 100;  [M-H]-
Name: 3-Phenoxybenzoic acid
Class: Benzenoids; Benzene and substituted derivatives; Diphenylethers
Formula: C13H10O3
Exact mass: 214.06299
SMILES: OC(=O)C1=CC(OC2=CC=CC=C2)=CC=C1
InChI: InChI=1S/C13H10O3/c14-13(15)10-5-4-8-12(9-10)16-11-6-2-1-3-7-11/h1-9H,(H,14,15)
Instrument: Thermo Scientific Q-Exactive Focus
Instrument type: LC-ESI-ITFT
Ms type: MS2
Ion mode: NEGATIVE
Ionization: ESI
Collision energy: 100
Column name: Acquity CSHC18
Retention time: 2.582 min
Base peak: 213.05573
Precursor m/z: 213.05573
Precursor type: [M-H]-
m/z	relative intensity
65.0385	999
75.0228	78
90.2528	37
92.5156	68
93.0334	787
111.6991	37
128.0515	37
158.9265	45
191.7147	36
222.5498	35
