Mass spectrum: 4-methylthiobutyl glucosinolate; LC-ESI-QTOF; MS2; CE: 18.16;  [M-O3S+H]+
Name: 4-methylthiobutyl glucosinolate
Class: NA
Formula: C12H23NO9S3
Exact mass: 421.0535
SMILES: CSCCCCC(=NOS(=O)(=O)O)SC1C(C(C(C(O1)CO)O)O)O
InChI: InChI=1S/C12H23NO9S3/c1-23-5-3-2-4-8(13-22-25(18,19)20)24-12-11(17)10(16)9(15)7(6-14)21-12/h7,9-12,14-17H,2-6H2,1H3,(H,18,19,20)
Instrument: Bruker MicrOTOF-Q
Instrument type: LC-ESI-QTOF
Ms type: MS2
Ion mode: POSITIVE
Ionization: ESI
Collision energy: 18.16
Column name: Acquity CSHC18
Retention time: NA
Base peak: 342.1040
Precursor m/z: 342.1040
Precursor type: [M-O3S+H]+
m/z	relative intensity
114.0324	6
114.0359	1
115.041	4
116.0523	2
118.9974	2
118.9993	2
127.0399	19
128.0502	5
131.9693	2
132.0463	999
133.0499	51
134.0414	29
145.0485	28
147.0285	27
149.0227	1
162.0403	110
163.0437	6
164.0375	7
164.0378	1
180.05	133
181.0523	15
182.0474	8
