Mass spectrum: 5-trans Latanoprost (free acid); ESI-TOF; MS2; CE: 0.6458333;  [M+H]+
Name: 5-trans Latanoprost (free acid)
Class: NA
Formula: C23H34O5
Exact mass: 390.24062
SMILES: O[C@@H](CCC1=CC=CC=C1)CC[C@@H]2[C@@H](C/C=C/CCCC(O)=O)[C@@H](O)C[C@H]2O
InChI: InChI=1S/C23H34O5/c24-18(13-12-17-8-4-3-5-9-17)14-15-20-19(21(25)16-22(20)26)10-6-1-2-7-11-23(27)28/h1,3-6,8-9,18-22,24-26H,2,7,10-16H2,(H,27,28)/b6-1+/t18-,19+,20+,21-,22+/m0/s1
Instrument: waters xevo g2 TOF
Instrument type: ESI-TOF
Ms type: MS2
Ion mode: POSITIVE
Ionization: ESI
Collision energy: 0.6458333
Column name: Acquity CSHC18
Retention time: 3.499 min
Base peak: 391.24862
Precursor m/z: 391.24862
Precursor type: [M+H]+
m/z	relative intensity
91.0548	999
93.0705	222
105.0706	950
106.0734	53
109.0665	39
117.071	536
118.0756	31
121.1017	78
131.0867	923
141.0712	415
143.0861	429
146.1037	30
147.1171	203
149.0611	17
157.1016	162
165.0694	29
166.081	44
167.0779	267
168.0909	51
169.1014	229
171.117	52
172.1215	74
179.0864	87
181.1017	401
183.1191	72
187.1484	87
190.1298	34
191.084	20
193.1112	56
195.1036	96
197.1329	89
207.1381	172
209.1333	481
210.1365	100
211.1476	42
215.1459	36
219.1369	93
221.1518	86
223.14	66
225.1461	21
227.1416	29
233.1535	75
235.1664	208
236.1599	42
246.1632	24
253.1591	42
337.2265	582
338.2301	128
355.2281	64
356.2307	15
372.1358	77
391.1369	59
