Mass spectrum: Quercitrin; LC-ESI-QFT; MS2; CE: 15,30,45 (NCE);  [M-H]-
Name: Quercitrin
Class: NA
Formula: C21H20O11
Exact mass: 448.1006
SMILES: CC1OC(OC2=C(OC3=CC(O)=CC(O)=C3C2=O)C2=CC(O)=C(O)C=C2)C(O)C(O)C1O
InChI: InChI=1S/C21H20O11/c1-7-15(26)17(28)18(29)21(30-7)32-20-16(27)14-12(25)5-9(22)6-13(14)31-19(20)8-2-3-10(23)11(24)4-8/h2-7,15,17-18,21-26,28-29H,1H3
Instrument: QE Focus, Thermo Scientfic; UPLC I-Class, Waters
Instrument type: LC-ESI-QFT
Ms type: MS2
Ion mode: NEGATIVE
Ionization: ESI
Collision energy: 15,30,45 (NCE)
Column name: Acquity CSHC18
Retention time: 1.631 min
Base peak: 447.0934
Precursor m/z: 447.0934
Precursor type: [M-H]-
Precursor intensity: 203898400
m/z	relative intensity
52.5136	52
107.228	54
151.0023	646
243.0295	105
255.0294	999
283.0236	65
