Mass spectrum: 1-(1Z-octadecenyl)-2-oleoyl-sn-glycero-3-phosphoethanolamine; ESI-TOF; MS2; CE: 6.0000000;  [M+H]+
Name: 1-(1Z-octadecenyl)-2-oleoyl-sn-glycero-3-phosphoethanolamine
Class: NA
Formula: C41H80NO7P
Exact mass: 729.56724
SMILES: [H]C(OC([H])([H])C([H])(OC(=O)C([H])([H])C([H])([H])C([H])([H])C([H])([H])C([H])([H])C([H])([H])C([H])([H])C([H])=C([H])C([H])([H])C([H])([H])C([H])([H])C([H])([H])C([H])([H])C([H])([H])C([H])([H])C([H])([H])[H])C([H])([H])OP(=O)([O-])OC([H])([H])C([H])([H])[N+]([H])([H])[H])=C([H])C([H])([H])C([H])([H])C([H])([H])C([H])([H])C([H])([H])C([H])([H])C([H])([H])C([H])([H])C([H])([H])C([H])([H])C([H])([H])C([H])([H])C([H])([H])C([H])([H])C([H])([H])C([H])([H])[H]
InChI: InChI=1S/C41H80NO7P/c1-3-5-7-9-11-13-15-17-19-21-23-25-27-29-31-33-36-46-38-40(39-48-50(44,45)47-37-35-42)49-41(43)34-32-30-28-26-24-22-20-18-16-14-12-10-8-6-4-2/h18,20,33,36,40H,3-17,19,21-32,34-35,37-39,42H2,1-2H3,(H,44,45)
Instrument: waters xevo g2 TOF
Instrument type: ESI-TOF
Ms type: MS2
Ion mode: POSITIVE
Ionization: ESI
Collision energy: 6.0000000
Column name: Acquity CSHC18
Retention time: 11.902 min
Base peak: 730.57524
Precursor m/z: 730.57524
Precursor type: [M+H]+
m/z	relative intensity
230.8908	6
258.6139	8
295.1944	6
339.2902	11
384.7652	54
385.2668	16
385.2678	6
385.7673	5
392.2935	26
393.2949	2
403.737	14
403.7377	7
411.725	7
443.2235	6
462.2988	19
589.5572	47
590.5591	18
591.5593	2
725.4795	36
725.4809	28
726.4843	22
730.5765	999
731.5791	470
732.5811	126
733.583	19
749.5487	84
750.0508	76
750.5527	38
751.0568	12
752.5582	85
753.5609	39
754.5633	10
768.5228	19
769.0235	8
769.5257	5
776.5045	5
777.0064	5
1114.3363	20
1114.8363	27
1115.3352	19
1115.8341	9
