Mass spectrum: N-ACETYLASPARAGINE; LC-ESI-QTOF; MS2; CE: 10;  [M-H]-
Name: N-ACETYLASPARAGINE
Class: NA
Formula: C6H10N2O4
Exact mass: 174.06406
SMILES: CC(=O)N[C@@H](CC(N)=O)C(O)=O
InChI: InChI=1S/C6H10N2O4/c1-3(9)8-4(6(11)12)2-5(7)10/h4H,2H2,1H3,(H2,7,10)(H,8,9)(H,11,12)/t4-/m0/s1
Instrument: Agilent 6530Â Q-TOF LC/MS
Instrument type: LC-ESI-QTOF
Ms type: MS2
Ion mode: NEGATIVE
Ionization: ESI
Collision energy: 10
Column name: NA
Retention time: 0.200 min
Base peak: 173.05953
Precursor m/z: 173.05953
Precursor type: [M-H]-
Precursor intensity: 159
m/z	relative intensity
41.0049	121
42.0098	126
58.044	133
59.0135	136
70.0334	145
84.0441	145
87.054	158
88.052	164
96.0133	220
113.0365	254
114.0263	259
130.0484	341
131.0476	495
155.0597	539
173.0633	748
174.0416	999
