Mass spectrum: L-Valine; ESI-TOF; MS2; CE: 6.0000000;  [M+H]+
Name: L-Valine
Class: NA
Formula: C5H11NO2
Exact mass: 117.07898
SMILES: CC(C)C(N)C(O)=O
InChI: InChI=1S/C5H11NO2/c1-3(2)4(6)5(7)8/h3-4H,6H2,1-2H3,(H,7,8)
Instrument: waters xevo g2 TOF
Instrument type: ESI-TOF
Ms type: MS2
Ion mode: POSITIVE
Ionization: ESI
Collision energy: 6.0000000
Column name: Acquity CSHC18
Retention time: 0.572 min
Base peak: 118.08698
Precursor m/z: 118.08698
Precursor type: [M+H]+
m/z	relative intensity
72.0816	259
96.9619	170
99.9699	32
102.1278	29
114.9714	33
114.9741	58
118.0868	999
119.0901	39
140.0678	15
143.9591	131
163.9761	15
163.9773	22
172.977	196
186.9567	7
191.0251	15
198.0824	14
217.1051	6
222.9599	11
236.9399	6
236.9417	19
365.1049	18
405.1521	21
427.1393	10
