Mass spectrum: N-ACETYLPROLINE; LC-ESI-QTOF; MS2; CE: 10;  [M+H]+
Name: N-ACETYLPROLINE
Class: NA
Formula: C7H11NO3
Exact mass: 157.07389
SMILES: [H][C@]1(CCCN1C(C)=O)C(O)=O
InChI: InChI=1S/C7H11NO3/c1-5(9)8-4-2-3-6(8)7(10)11/h6H,2-4H2,1H3,(H,10,11)/t6-/m0/s1
Instrument: Agilent 6530Â Q-TOF LC/MS
Instrument type: LC-ESI-QTOF
Ms type: MS2
Ion mode: POSITIVE
Ionization: ESI
Collision energy: 10
Column name: NA
Retention time: 0.200 min
Base peak: 158.07954
Precursor m/z: 158.07954
Precursor type: [M+H]+
Precursor intensity: 94.5
m/z	relative intensity
41.0409	19
43.0437	20
43.1773	20
57.0667	21
58.0647	21
68.0508	21
70.6912	23
71.7082	23
71.8661	23
85.1456	24
112.5084	25
113.249	27
116.3139	34
116.8477	40
117.1118	290
117.4252	403
140.0998	410
158.2926	512
158.6565	728
158.7648	999
