Mass spectrum: NORLEUCINE; LC-ESI-QFT; MS2; CE: 30eV;  [M+H]+
Name: NORLEUCINE
Class: NA
Formula: C6H13NO2
Exact mass: 131.09463
SMILES: CCCC[C@H](N)C(O)=O
InChI: InChI=1S/C6H13NO2/c1-2-3-4-5(7)6(8)9/h5H,2-4,7H2,1H3,(H,8,9)/t5-/m0/s1
Instrument: Q-Exactive Orbitrap, Thermo Scientfic; Ultimate 3000 HPLC, Thermo Scientfic
Instrument type: LC-ESI-QFT
Ms type: MS2
Ion mode: POSITIVE
Ionization: ESI
Collision energy: 30eV
Column name: Acquity CSHC18
Retention time: 1.024 min
Base peak: 132.1019
Precursor m/z: 132.1019
Precursor type: [M+H]+
Precursor intensity: 105
m/z	relative intensity
50.6112	7
51.5861	8
52.4268	8
55.5859	8
57.0429	9
60.2981	9
60.522	8
63.0805	8
65.9249	8
65.9422	8
68.9936	8
69.0707	999
70.0741	16
71.9301	23
72.9379	47
73.7818	9
87.0942	55
87.1005	986
89.9405	49
94.0833	11
97.0343	9
107.9511	24
113.5234	9
113.9642	22
125.0963	9
125.9615	18
131.1263	13
131.9751	12
132.1023	656
132.9584	11
133.1059	16
133.4055	9
148.9772	10
