Mass spectrum: 3-Indolylmethylglucosinolate; LC-ESI-ITFT; MS2; CE: 30;  [M+H]+
Name: 3-Indolylmethylglucosinolate
Class: NA
Formula: C16H20N2O9S2
Exact mass: 448.0610
SMILES: C1=CC=C2C(=C1)C(=CN2)CC(=NOS(=O)(=O)O)SC3C(C(C(C(O3)CO)O)O)O
InChI: InChI=1S/C16H20N2O9S2/c19-7-11-13(20)14(21)15(22)16(26-11)28-12(18-27-29(23,24)25)5-8-6-17-10-4-2-1-3-9(8)10/h1-4,6,11,13-17,19-22H,5,7H2,(H,23,24,25)
Instrument: q exactive focus thermo
Instrument type: LC-ESI-ITFT
Ms type: MS2
Ion mode: POSITIVE
Ionization: ESI
Collision energy: 30
Column name: Acquity CSHC18
Retention time: 4.551 min
Base peak: 449.0692
Precursor m/z: 449.0692
Precursor type: [M+H]+
Precursor intensity: 8047850
m/z	relative intensity
101.041	3
102.0691	3
103.0433	4
104.0536	4
105.0514	4
109.0198	4
117.0632	5
119.0661	6
121.045	8
128.0562	9
129.0508	9
130.0571	9
132.0582	10
143.0668	10
145.0627	11
146.0888	15
147.0461	17
148.0532	20
161.0462	21
175.0329	35
176.0454	51
177.0779	112
188.0286	999
