Mass spectrum: H-Leu-Val-OH; LC-ESI-QTOF; MS2; CE: 27.10;  [2M+H]+
Name: H-Leu-Val-OH
Class: NA
Formula: C11H22N2O3
Exact mass: 230.1630
SMILES: CC(C)CC(C(=O)NC(C(C)C)C(=O)O)N
InChI: InChI=1S/C11H22N2O3/c1-6(2)5-8(12)10(14)13-9(7(3)4)11(15)16/h6-9H,5,12H2,1-4H3,(H,13,14)(H,15,16)
Instrument: Bruker MicrOTOF-Q
Instrument type: LC-ESI-QTOF
Ms type: MS2
Ion mode: POSITIVE
Ionization: ESI
Collision energy: 27.10
Column name: Acquity CSHC18
Retention time: NA
Base peak: 461.3334
Precursor m/z: 461.3334
Precursor type: [2M+H]+
m/z	relative intensity
168.19	8
185.16	125
196.12	11
213.15	17
214.14	8
231.08	8
231.17	999
232.17	108
232.24	16
