Mass spectrum: syringic acid; LC-ESI-ITFT; MS2; CE: 45eV;  [M+H]+
Name: syringic acid
Class: phenolic acid
Formula: C9H10O5
Exact mass: 198.0528
SMILES: COC1=CC(=CC(=C1O)OC)C(=O)O
InChI: InChI=1S/C9H10O5/c1-13-6-3-5(9(11)12)4-7(14-2)8(6)10/h3-4,10H,1-2H3,(H,11,12)
Instrument: LTQ Orbitrap XL, Thermo Scientfic; Dionex Ultimate 300
Instrument type: LC-ESI-ITFT
Ms type: MS2
Ion mode: POSITIVE
Ionization: ESI
Collision energy: 45eV
Column name: Alltima C18
Retention time: 9.57 min
Base peak: 199.0600
Precursor m/z: 199.0600
Precursor type: [M+H]+
m/z	relative intensity
59.9253	8
66.9107	232
78.9525	251
80.9664	409
90.9011	68
94.9962	548
107.0198	453
115.9201	4
136.9484	145
151.1999	11
163.0891	60
171.3481	44
172.8447	241
180.9959	999
