Mass spectrum: Prostaglandin D1 Alcohol; ESI-TOF; MS2; CE: 6.0000000;  [M+H]+
Name: Prostaglandin D1 Alcohol
Class: NA
Formula: C20H36O4
Exact mass: 340.26136
SMILES: CCCCCC(O)/C=C/[C@H]1C(=O)CC(O)C1CCCCCCCO
InChI: InChI=1S/C20H36O4/c1-2-3-7-10-16(22)12-13-18-17(19(23)15-20(18)24)11-8-5-4-6-9-14-21/h12-13,16-19,21-23H,2-11,14-15H2,1H3/b13-12+/t16?,17?,18-,19?/m1/s1
Instrument: waters xevo g2 TOF
Instrument type: ESI-TOF
Ms type: MS2
Ion mode: POSITIVE
Ionization: ESI
Collision energy: 6.0000000
Column name: Acquity CSHC18
Retention time: 3.676 min
Base peak: 341.26936
Precursor m/z: 341.26936
Precursor type: [M+H]+
m/z	relative intensity
105.0706	4
109.1018	9
113.965	41
121.1014	8
145.1021	3
149.1336	9
172.101	31
172.6026	3
173.1322	5
175.1487	12
177.146	3
179.1408	3
180.1006	6
181.1072	81
187.1451	4
190.1124	17
191.1438	8
195.1417	4
197.1537	40
198.157	4
207.1356	3
209.1537	9
219.1758	3
221.1914	9
235.2053	22
243.2129	2
245.2099	20
251.2374	4
259.2424	7
261.223	6
263.2366	71
269.1544	14
277.2531	71
279.2632	21
280.271	2
287.2377	312
288.2405	67
289.2459	4
303.2318	28
304.2335	10
305.248	999
306.2513	223
307.2536	17
315.0867	10
321.2431	29
323.2582	693
324.2599	132
325.2665	17
333.1678	6
