Mass spectrum: N-ACETYLGLUCOSAMINE; LC-ESI-QTOF; MS2; CE: 10;  [M-H]-
Name: N-ACETYLGLUCOSAMINE
Class: NA
Formula: C8H15NO6
Exact mass: 221.08994
SMILES: CC(=O)N[C@H]1C(O)O[C@H](CO)[C@@H](O)[C@@H]1O
InChI: InChI=1S/C8H15NO6/c1-3(11)9-5-7(13)6(12)4(2-10)15-8(5)14/h4-8,10,12-14H,2H2,1H3,(H,9,11)/t4-,5-,6-,7-,8?/m1/s1
Instrument: Agilent 6530Â Q-TOF LC/MS
Instrument type: LC-ESI-QTOF
Ms type: MS2
Ion mode: NEGATIVE
Ionization: ESI
Collision energy: 10
Column name: NA
Retention time: 0.200 min
Base peak: 220.08703
Precursor m/z: 220.08703
Precursor type: [M-H]-
Precursor intensity: 164
m/z	relative intensity
41.0053	123
43.0215	126
58.0329	127
59.0287	130
71.0175	134
89.0217	135
100.0451	294
119.0311	999
