Mass spectrum: 8-iso Prostaglandin E2 isopropyl ester; ESI-TOF; MS2; CE: 6.0000000;  [M+H]+
Name: 8-iso Prostaglandin E2 isopropyl ester
Class: NA
Formula: C23H38O5
Exact mass: 394.27192
SMILES: O=C1[C@@H](C/C=C\CCCC(OC(C)C)=O)[C@@H](/C=C/[C@@H](O)CCCCC)[C@H](O)C1
InChI: InChI=1S/C23H38O5/c1-4-5-8-11-18(24)14-15-20-19(21(25)16-22(20)26)12-9-6-7-10-13-23(27)28-17(2)3/h6,9,14-15,17-20,22,24,26H,4-5,7-8,10-13,16H2,1-3H3/b9-6-,15-14+/t18-,19-,20+,22+/m0/s1
Instrument: waters xevo g2 TOF
Instrument type: ESI-TOF
Ms type: MS2
Ion mode: POSITIVE
Ionization: ESI
Collision energy: 6.0000000
Column name: Acquity CSHC18
Retention time: 4.399 min
Base peak: 395.27992
Precursor m/z: 395.27992
Precursor type: [M+H]+
m/z	relative intensity
166.0647	9
175.0692	7
178.0834	29
187.0997	132
201.1277	25
207.6021	7
215.1432	9
217.1586	7
227.1792	22
229.1576	8
239.1771	9
245.1902	28
246.1956	5
247.2046	31
253.1963	9
255.1744	10
257.1883	61
263.2008	38
265.2155	39
271.2067	67
281.1906	102
289.2154	79
291.1947	41
292.2006	10
299.2009	999
300.2038	186
303.2309	5
307.2634	74
308.2649	17
317.159	649
318.2147	333
331.1243	9
334.2458	7
335.2223	681
336.2266	121
341.2394	11
348.1001	12
349.2336	9
354.196	11
357.1968	2
359.2581	264
360.2597	63
361.2627	7
373.1669	37
374.1718	4
375.7202	12
377.2686	162
378.2708	66
379.2712	9
391.1769	18
