Mass spectrum: 2,3-dihydroxybenzoic acid; LC-ESI-QTOF; MS2; CE: 15.00;  [M-H]-
Name: 2,3-dihydroxybenzoic acid
Class: NA
Formula: C7H6O4
Exact mass: 154.0266
SMILES: C1=CC(=C(C(=C1)O)O)C(=O)O
InChI: InChI=1S/C7H6O4/c8-5-3-1-2-4(6(5)9)7(10)11/h1-3,8-9H,(H,10,11)
Instrument: Bruker MicrOTOF-Q
Instrument type: LC-ESI-QTOF
Ms type: MS2
Ion mode: NEGATIVE
Ionization: ESI
Collision energy: 15.00
Column name: Acquity CSHC18
Retention time: NA
Base peak: 153.0193
Precursor m/z: 153.0193
Precursor type: [M-H]-
m/z	relative intensity
45.3629	11
46.992	10
48.5988	10
49.5864	9
50.2022	9
51.5002	10
52.1796	11
53.3192	9
54.1635	11
55.9359	10
57.4664	12
58.621	10
60.4894	10
61.854	9
62.3413	10
63.1979	10
65.4241	10
67.485	9
69.1875	10
71.0489	11
71.7907	11
72.666	10
74.5657	12
75.2124	9
77.4525	10
78.2305	15
78.9393	11
81.0866	9
82.3839	9
85.2376	11
86.1793	9
86.6267	12
88.4412	9
89.4861	9
91.0185	64
91.789	9
92.8643	9
93.9574	10
94.8647	9
95.7469	10
97.1492	10
97.6593	11
98.9265	13
99.424	14
101.5256	20
102.2445	13
103.4987	11
105.2035	10
108.8694	999
110.8631	20
152.4257	9
153.0188	802
154.0205	66
