Mass spectrum: Methylcinnamate; LC-ESI-QTOF; MS2; CE: 15.00;  [M+Na]+
Name: Methylcinnamate
Class: NA
Formula: C10H10O2
Exact mass: 162.0681
SMILES: COC(=O)C=CC1=CC=CC=C1
InChI: InChI=1S/C10H10O2/c1-12-10(11)8-7-9-5-3-2-4-6-9/h2-8H,1H3
Instrument: Bruker MicrOTOF-Q
Instrument type: LC-ESI-QTOF
Ms type: MS2
Ion mode: POSITIVE
Ionization: ESI
Collision energy: 15.00
Column name: Acquity CSHC18
Retention time: NA
Base peak: 185.0573
Precursor m/z: 185.0573
Precursor type: [M+Na]+
m/z	relative intensity
77.04	2
79.19	3
91.05	3
101.01	2
102.05	26
102.17	2
102.96	2
103.05	999
103.19	2
104.06	65
111.1	2
111.17	2
121.07	21
122.11	2
130.46	2
130.96	2
131.05	898
131.14	3
131.2	2
131.36	2
131.42	2
131.61	3
132.05	93
135.71	3
147.05	6
163.07	5
195.92	2
