Mass spectrum: GALACTITOL; LC-ESI-QTOF; MS2; CE: 20;  [M-H]-
Name: GALACTITOL
Class: NA
Formula: C6H14O6
Exact mass: 182.07904
SMILES: OC[C@H](O)[C@@H](O)[C@@H](O)[C@H](O)CO
InChI: InChI=1S/C6H14O6/c7-1-3(9)5(11)6(12)4(10)2-8/h3-12H,1-2H2/t3-,4+,5+,6-
Instrument: Agilent 6530Â Q-TOF LC/MS
Instrument type: LC-ESI-QTOF
Ms type: MS2
Ion mode: NEGATIVE
Ionization: ESI
Collision energy: 20
Column name: NA
Retention time: 0.200 min
Base peak: 181.06918
Precursor m/z: 181.06918
Precursor type: [M-H]-
Precursor intensity: 105
m/z	relative intensity
41.0114	176
43.0316	186
45.0041	192
55.033	197
57.0418	235
59.0316	253
71.0327	294
73.0378	368
83.0215	408
85.0373	463
89.0359	752
101.0375	999
