Mass spectrum: dAMP; LC-ESI-QTOF; MS2; CE: -10, -35, -60V;  [M-H]-
Name: dAMP
Class: NA
Formula: C10H14N5O6P
Exact mass: 331.0682
SMILES: C1C(C(OC1N2C=NC3=C(N=CN=C32)N)COP(=O)(O)O)O
InChI: InChI=1S/C10H14N5O6P/c11-9-8-10(13-3-12-9)15(4-14-8)7-1-5(16)6(21-7)2-20-22(17,18)19/h3-7,16H,1-2H2,(H2,11,12,13)(H2,17,18,19)
Instrument: TripleToF 5600; Sciex
Instrument type: LC-ESI-QTOF
Ms type: MS2
Ion mode: NEGATIVE
Ionization: ESI
Collision energy: -10, -35, -60V
Column name: Acquity CSHC18
Retention time: 8.864 min
Base peak: 330.0606
Precursor m/z: 330.0606
Precursor type: [M-H]-
Precursor intensity: 130920.6
m/z	relative intensity
78.9597	999
96.9708	117
107.0366	72
134.0482	379
176.9951	57
195.0069	217
330.0609	217
