Mass spectrum: L-serine; LC-ESI-QTOF; MS2; CE: -10, -35, -60V;  [M-H]-
Name: L-serine
Class: NA
Formula: C3H7NO3
Exact mass: 105.0426
SMILES: C(C(C(=O)O)N)O
InChI: InChI=1S/C3H7NO3/c4-2(1-5)3(6)7/h2,5H,1,4H2,(H,6,7)
Instrument: TripleToF 5600; Sciex
Instrument type: LC-ESI-QTOF
Ms type: MS2
Ion mode: NEGATIVE
Ionization: ESI
Collision energy: -10, -35, -60V
Column name: Acquity CSHC18
Retention time: 0.655 min
Base peak: 104.0369
Precursor m/z: 104.0369
Precursor type: [M-H]-
Precursor intensity: 122497.9
m/z	relative intensity
72.0109	115
74.0254	578
103.7656	2
104.0362	999
