Mass spectrum: Indole-3-butyric acid; LC-ESI-QTOF; MS2; CE: 50eV;  [M-H]-
Name: Indole-3-butyric acid
Class: indole
Formula: C12H13NO2
Exact mass: 203.0946
SMILES: C1=CC=C2C(=C1)C(=CN2)CCCC(=O)O
InChI: InChI=1S/C12H13NO2/c14-12(15)7-3-4-9-8-13-11-6-2-1-5-10(9)11/h1-2,5-6,8,13H,3-4,7H2,(H,14,15)
Instrument: TIMS-TOF Pro, Bruker Daltonik; Elute UHPLC System, Bruker Daltonik
Instrument type: LC-ESI-QTOF
Ms type: MS2
Ion mode: NEGATIVE
Ionization: ESI
Collision energy: 50eV
Column name: Acquity CSHC18
Retention time: 7.411 min
Base peak: 202.0840
Precursor m/z: 202.0840
Precursor type: [M-H]-
Precursor intensity: 74705.13
m/z	relative intensity
74.2281	112
92.0483	79
116.049	703
117.0516	151
126.5431	70
128.0463	71
129.0618	127
130.065	142
142.0668	73
156.0788	194
158.0946	999
159.0983	95
184.0729	103
197.4421	82
202.0845	665
