Mass spectrum: Hymecromone; LC-ESI-ITFT; MS2; CE: 45eV;  [M+H]+
Name: Hymecromone
Class: coumarin
Formula: C10H8O3
Exact mass: 176.0473
SMILES: CC1=CC(=O)OC2=C1C=CC(=C2)O
InChI: InChI=1S/C10H8O3/c1-6-4-10(12)13-9-5-7(11)2-3-8(6)9/h2-5,11H,1H3
Instrument: LTQ Orbitrap XL, Thermo Scientfic; Dionex Ultimate 300
Instrument type: LC-ESI-ITFT
Ms type: MS2
Ion mode: POSITIVE
Ionization: ESI
Collision energy: 45eV
Column name: Alltima C18
Retention time: 18.45 min
Base peak: 177.0535
Precursor m/z: 177.0535
Precursor type: [M+H]+
m/z	relative intensity
92.8988	47
121.0027	999
130.988	153
144.9558	13
168.2762	7
