Mass spectrum: Rhein; LC-ESI-QTOF; MS2; CE: 15.00;  [M+H]+
Name: Rhein
Class: NA
Formula: C15H8O6
Exact mass: 284.0321
SMILES: C1=CC2=C(C(=C1)O)C(=O)C3=C(C2=O)C=C(C=C3O)C(=O)O
InChI: InChI=1S/C15H8O6/c16-9-3-1-2-7-11(9)14(19)12-8(13(7)18)4-6(15(20)21)5-10(12)17/h1-5,16-17H,(H,20,21)
Instrument: Bruker MicrOTOF-Q
Instrument type: LC-ESI-QTOF
Ms type: MS2
Ion mode: POSITIVE
Ionization: ESI
Collision energy: 15.00
Column name: Acquity CSHC18
Retention time: NA
Base peak: 285.0394
Precursor m/z: 285.0394
Precursor type: [M+H]+
m/z	relative intensity
213.0544	19
239.0327	21
241.049	29
242.0526	59
267.0284	159
268.0314	164
285.0392	428
286.042	999
