Mass spectrum: Pentadecanoic acid; LC-ESI-ITFT; MS2; CE: 60;  [M-H]-
Name: Pentadecanoic acid
Class: Lipids and lipid-like molecules; Fatty Acyls; Fatty acids and conjugates
Formula: C15H30O2
Exact mass: 242.22458
SMILES: CCCCCCCCCCCCCCC(O)=O
InChI: InChI=1S/C15H30O2/c1-2-3-4-5-6-7-8-9-10-11-12-13-14-15(16)17/h2-14H2,1H3,(H,16,17)
Instrument: Thermo Scientific Q-Exactive Focus
Instrument type: LC-ESI-ITFT
Ms type: MS2
Ion mode: NEGATIVE
Ionization: ESI
Collision energy: 60
Column name: Acquity CSHC18
Retention time: 2.029 min
Base peak: 241.21730
Precursor m/z: 241.21730
Precursor type: [M-H]-
m/z	relative intensity
74.9895	79
75.961	472
76.9688	152
78.9579	74
93.0001	999
94.9794	595
94.9969	98
152.967	112
152.9701	116
194.9265	75
