Mass spectrum: PYRIDOXAL; LC-ESI-QTOF; MS2; CE: 40;  [M+H]+
Name: PYRIDOXAL
Class: NA
Formula: C8H9NO3
Exact mass: 167.05824
SMILES: CC1=NC=C(CO)C(C=O)=C1O
InChI: InChI=1S/C8H9NO3/c1-5-8(12)7(4-11)6(3-10)2-9-5/h2,4,10,12H,3H2,1H3
Instrument: Agilent 6530Â Q-TOF LC/MS
Instrument type: LC-ESI-QTOF
Ms type: MS2
Ion mode: POSITIVE
Ionization: ESI
Collision energy: 40
Column name: NA
Retention time: 0.200 min
Base peak: 168.06892
Precursor m/z: 168.06892
Precursor type: [M+H]+
Precursor intensity: 187.5
m/z	relative intensity
40.0214	26
41.2545	26
41.6608	27
42.0654	28
42.4053	28
43.0289	28
50.0173	29
51.048	29
52.0355	30
52.8802	33
53.2527	34
54.0812	35
55.0376	35
56.0485	37
63.0318	37
64.03	38
65.2231	41
65.5761	42
65.7442	45
66.0613	55
67.4003	56
68.0961	57
68.4014	70
75.0294	77
77.1891	81
77.58	89
77.6835	95
78.0602	100
78.3162	106
79.0686	107
80.0603	119
81.0505	123
82.0675	170
83.0308	172
92.0717	252
93.1568	278
93.4544	286
94.4919	311
95.1574	343
95.5491	464
96.0428	487
104.0522	541
106.0877	558
107.0373	688
108.0536	718
110.0555	720
120.0581	837
122.0855	885
148.059	896
150.0777	999
