Mass spectrum: Biliverdin hydrochloride; ESI-TOF; MS2; CE: 6.0000000;  [M+H]+
Name: Biliverdin hydrochloride
Class: NA
Formula: C33H34N4O6
Exact mass: 582.24783
SMILES: CC1=C(C=C)\C(NC1=O)=C\C1=C(C)C(CCC(O)=O)=C(N1)\C=C1/N\C(=C\C2=NC(=O)C(C=C)=C2C)C(C)=C1CCC(O)=O
InChI: InChI=1S/C33H34N4O6/c1-7-20-19(6)32(42)37-27(20)14-25-18(5)23(10-12-31(40)41)29(35-25)15-28-22(9-11-30(38)39)17(4)24(34-28)13-26-16(3)21(8-2)33(43)36-26/h7-8,13-15,34-35H,1-2,9-12H2,3-6H3,(H,37,42)(H,38,39)(H,40,41)/b24-13+,27-14-,28-15-
Instrument: waters xevo g2 TOF
Instrument type: ESI-TOF
Ms type: MS2
Ion mode: POSITIVE
Ionization: ESI
Collision energy: 6.0000000
Column name: Acquity CSHC18
Retention time: 3.362 min
Base peak: 583.25583
Precursor m/z: 583.25583
Precursor type: [M+H]+
m/z	relative intensity
283.1074	28
287.1389	4
295.1078	5
299.1372	3
301.1183	20
315.1343	186
316.1394	23
327.134	10
329.1506	39
337.1166	15
369.1407	56
462.2027	72
463.2034	16
478.1969	94
479.1994	21
480.2095	73
492.2131	107
493.2189	41
494.2275	323
495.2311	91
510.222	19
524.2375	34
581.2387	484
582.2417	214
583.2553	999
583.7559	32
584.2559	378
