Mass spectrum: yohimbine; LC-ESI-ITFT; MS2; CE: 0.3;  [M+H]+
Name: yohimbine
Class: alkaloids
Formula: C21H26N2O3
Exact mass: 354.1943
SMILES: COC(=O)C1C(CCC2C1CC3C4=C(CCN3C2)C5=CC=CC=C5N4)O
InChI: InChI=1S/C21H26N2O3/c1-26-21(25)19-15-10-17-20-14(13-4-2-3-5-16(13)22-20)8-9-23(17)11-12(15)6-7-18(19)24/h2-5,12,15,17-19,22,24H,6-11H2,1H3
Instrument: LTQ-Orbitrap XL hybrid mass spectrometer (Thermo Scientific)
Instrument type: LC-ESI-ITFT
Ms type: MS2
Ion mode: POSITIVE
Ionization: ESI
Collision energy: 0.3
Column name: Acquity CSHC18
Retention time: 5.422 min
Base peak: 355.2013
Precursor m/z: 355.2013
Precursor type: [M+H]+
Precursor intensity: 91533960
m/z	relative intensity
88.5438	2
88.8867	1
89.6647	1
106.0646	2
108.9037	1
115.054	4
117.0696	5
119.2157	2
119.5108	1
134.0961	22
136.1126	2
143.0728	7
144.0806	312
158.0967	4
162.0913	27
167.027	9
180.1019	31
188.4452	1
192.1021	2
194.1175	38
197.6239	2
199.085	1
210.1138	3
210.7924	3
212.0877	5
212.096	6
212.1071	5
212.1283	999
212.1614	6
212.1714	5
212.18	6
212.1907	4
212.1986	5
212.2087	3
212.2175	4
213.0308	2
213.478	2
224.1281	269
277.1706	1
287.1091	4
292.1321	4
294.1494	43
295.1804	2
306.1504	5
308.1637	3
312.1602	5
314.3235	2
320.1646	3
323.1743	3
324.1497	6
326.1756	38
337.1921	5
338.1759	33
355.2018	319
