Mass spectrum: Barbituric acid; LC-ESI-ITFT; MS2; CE: 10;  [M+H]+
Name: Barbituric acid
Class: Organoheterocyclic compounds; Diazines; Pyrimidines and pyrimidine derivatives
Formula: C4H4N2O3
Exact mass: 128.02219
SMILES: OC1=NC(=O)N=C(O)C1
InChI: InChI=1S/C4H4N2O3/c7-2-1-3(8)6-4(9)5-2/h1H2,(H2,5,6,7,8,9)
Instrument: Thermo Scientific Q-Exactive Focus
Instrument type: LC-ESI-ITFT
Ms type: MS2
Ion mode: POSITIVE
Ionization: ESI
Collision energy: 10
Column name: Acquity CSHC18
Retention time: 0.348 min
Base peak: 129.02946
Precursor m/z: 129.02946
Precursor type: [M+H]+
m/z	relative intensity
61.0402	224
68.9976	121
86.0068	90
86.0241	383
88.0761	163
97.5147	43
101.0349	65
111.9686	32
129.0296	999
129.1105	34
