Mass spectrum: Biliverdin hydrochloride; ESI-TOF; MS2; CE: 0.6458333;  [M+H]+
Name: Biliverdin hydrochloride
Class: NA
Formula: C33H34N4O6
Exact mass: 582.24783
SMILES: CC1=C(C=C)\C(NC1=O)=C\C1=C(C)C(CCC(O)=O)=C(N1)\C=C1/N\C(=C\C2=NC(=O)C(C=C)=C2C)C(C)=C1CCC(O)=O
InChI: InChI=1S/C33H34N4O6/c1-7-20-19(6)32(42)37-27(20)14-25-18(5)23(10-12-31(40)41)29(35-25)15-28-22(9-11-30(38)39)17(4)24(34-28)13-26-16(3)21(8-2)33(43)36-26/h7-8,13-15,34-35H,1-2,9-12H2,3-6H3,(H,37,42)(H,38,39)(H,40,41)/b24-13+,27-14-,28-15-
Instrument: waters xevo g2 TOF
Instrument type: ESI-TOF
Ms type: MS2
Ion mode: POSITIVE
Ionization: ESI
Collision energy: 0.6458333
Column name: Acquity CSHC18
Retention time: 3.362 min
Base peak: 583.25583
Precursor m/z: 583.25583
Precursor type: [M+H]+
m/z	relative intensity
194.0812	26
227.1177	56
251.1194	31
253.0984	150
254.1018	41
283.1074	23
285.1218	42
287.1389	66
295.1078	751
296.111	140
297.1228	638
298.127	113
299.1372	162
301.1541	95
315.1343	10
327.134	41
329.1506	15
337.1166	32
344.176	38
369.1407	14
373.1745	25
402.1817	40
403.1874	74
417.1648	67
450.2015	52
460.1856	63
462.2027	401
463.2034	152
464.2129	35
476.1814	140
477.185	32
478.1969	138
479.1994	34
480.2095	51
492.2131	156
493.2189	92
494.2275	351
495.2311	94
510.222	64
522.2284	73
523.2308	44
524.2375	74
537.2487	211
538.2469	102
581.2387	999
582.2417	411
583.2553	385
584.2559	575
