Mass spectrum: Indole-3-acetic acid; LC-ESI-QTOF; MS2; CE: 15;  [M-H]-
Name: Indole-3-acetic acid
Class: NA
Formula: C10H9NO2
Exact mass: 175.0633
SMILES: C1=CC=C2C(=C1)C(=CN2)CC(=O)O
InChI: InChI=1S/C10H9NO2/c12-10(13)5-7-6-11-9-4-2-1-3-8(7)9/h1-4,6,11H,5H2,(H,12,13)
Instrument: Bruker MicrOTOF-Q
Instrument type: LC-ESI-QTOF
Ms type: MS2
Ion mode: NEGATIVE
Ionization: ESI
Collision energy: 15
Column name: Acquity CSHC18
Retention time: NA
Base peak: 174.0561
Precursor m/z: 174.0561
Precursor type: [M-H]-
m/z	relative intensity
127.5877	5
127.8357	6
128.0504	635
128.2407	4
129.0534	55
129.5696	6
129.9459	11
130.0651	999
130.2216	3
131.0694	80
144.0434	4
172.0384	91
