Mass spectrum: 20-ethyl Prostaglandin E2; ESI-TOF; MS2; CE: 6.0000000;  [M+H]+
Name: 20-ethyl Prostaglandin E2
Class: NA
Formula: C22H36O5
Exact mass: 380.25627
SMILES: CCCCCCC[C@H](O)/C=C/[C@H]([C@H]1C/C=C\CCCC(O)=O)[C@H](O)CC1=O
InChI: InChI=1S/C22H36O5/c1-2-3-4-5-8-11-17(23)14-15-19-18(20(24)16-21(19)25)12-9-6-7-10-13-22(26)27/h6,9,14-15,17-19,21,23,25H,2-5,7-8,10-13,16H2,1H3,(H,26,27)/b9-6-,15-14+/t17-,18+,19+,21+/m0/s1
Instrument: waters xevo g2 TOF
Instrument type: ESI-TOF
Ms type: MS2
Ion mode: POSITIVE
Ionization: ESI
Collision energy: 6.0000000
Column name: Acquity CSHC18
Retention time: 4.086 min
Base peak: 381.26427
Precursor m/z: 381.26427
Precursor type: [M+H]+
m/z	relative intensity
67.0539	3
81.0702	3
91.0534	3
95.0857	3
105.0705	3
107.0845	3
109.1	3
114.9709	18
117.0705	3
119.0858	3
121.0676	3
127.1132	3
129.0699	3
131.0871	3
141.07	3
143.087	3
145.1015	3
155.0859	3
159.0804	3
161.0957	3
169.1019	3
171.1173	3
173.1312	3
179.144	42
183.1181	3
185.1328	3
187.1119	3
189.0917	51
197.1322	3
201.1284	3
206.0001	3
207.1025	61
211.1122	3
215.105	13
243.1724	50
255.2088	19
257.2251	18
261.1823	22
273.2204	3
274.0251	16
275.2374	46
281.2229	3
283.2029	3
285.2193	72
290.0949	3
291.222	109
293.2476	88
299.2384	92
304.2973	3
309.2224	185
310.2256	3
317.2481	89
318.2503	21
319.2253	98
327.1861	660
328.2359	320
331.1951	3
345.1904	999
346.2462	379
347.2527	57
363.2528	870
364.2575	183
382.2261	366
382.7274	194
383.2284	44
