Mass spectrum: Aspartic acid; LC-ESI-QTOF; MS2; CE: 30;  [M-H]-
Name: Aspartic acid
Class: NA
Formula: C4H7NO4
Exact mass: 133.0375
SMILES: C(C(C(=O)O)N)C(=O)O
InChI: InChI=1S/C4H7NO4/c5-2(4(8)9)1-3(6)7/h2H,1,5H2,(H,6,7)(H,8,9)
Instrument: impact II
Instrument type: LC-ESI-QTOF
Ms type: MS2
Ion mode: NEGATIVE
Ionization: ESI
Collision energy: 30
Column name: Acquity CSHC18
Retention time: 1.872 min
Base peak: 132.0302
Precursor m/z: 132.0302
Precursor type: [M-H]-
m/z	relative intensity
72.0096	311
88.0406	999
