Mass spectrum: N-oleoylglycine; ESI-TOF; MS2; CE: 0.6458333;  [M+H]+
Name: N-oleoylglycine
Class: NA
Formula: C20H37NO3
Exact mass: 339.27734
SMILES: CCCCCCCCC=CCCCCCCCC(=O)NCC(=O)O
InChI: InChI=1S/C20H37NO3/c1-2-3-4-5-6-7-8-9-10-11-12-13-14-15-16-17-19(22)21-18-20(23)24/h9-10H,2-8,11-18H2,1H3,(H,21,22)(H,23,24)
Instrument: waters xevo g2 TOF
Instrument type: ESI-TOF
Ms type: MS2
Ion mode: POSITIVE
Ionization: ESI
Collision energy: 0.6458333
Column name: Acquity CSHC18
Retention time: 7.970 min
Base peak: 340.28534
Precursor m/z: 340.28534
Precursor type: [M+H]+
m/z	relative intensity
67.0546	84
69.0703	148
76.0391	999
79.0549	84
81.0701	305
83.0859	259
93.0701	200
95.0858	409
97.1015	272
107.0855	135
109.1018	262
111.1175	106
112.0757	31
121.1015	493
123.1169	73
135.1168	427
136.1206	42
137.1327	32
139.1122	24
149.1324	202
150.136	24
151.1478	32
155.0015	28
163.1489	47
165.1639	46
182.026	36
247.242	273
248.2458	38
265.2523	277
266.2554	44
294.28	79
308.1534	22
318.2643	30
322.2754	11
332.2269	115
334.2419	155
340.2847	889
341.2879	189
