Mass spectrum: Ethylvanillin; LC-ESI-QTOF; MS2; CE: 15;  [M-H]-
Name: Ethylvanillin
Class: NA
Formula: C9H10O3
Exact mass: 166.0630
SMILES: CCOC1=C(C=CC(=C1)C=O)O
InChI: InChI=1S/C9H10O3/c1-2-12-9-5-7(6-10)3-4-8(9)11/h3-6,11H,2H2,1H3
Instrument: Bruker MicrOTOF-Q
Instrument type: LC-ESI-QTOF
Ms type: MS2
Ion mode: NEGATIVE
Ionization: ESI
Collision energy: 15
Column name: Acquity CSHC18
Retention time: NA
Base peak: 165.0557
Precursor m/z: 165.0557
Precursor type: [M-H]-
m/z	relative intensity
49.2101	1
69.4774	1
82.4338	1
83.4971	1
92.024	18
93.0276	1
99.9841	1
104.5491	1
107.017	1
108.0217	166
108.5061	1
109.0263	11
109.858	1
135.5115	2
135.5985	2
136.0164	999
136.4426	2
136.4998	1
136.8719	1
136.9231	1
137.0237	313
137.252	1
138.0272	20
138.1223	1
