Mass spectrum: 1,2-dilinoleoyl-sn-glycero-3-phosphoethanolamine; ESI-TOF; MS2; CE: 0.6458333;  [M+H]+
Name: 1,2-dilinoleoyl-sn-glycero-3-phosphoethanolamine
Class: NA
Formula: C41H74NO8P
Exact mass: 739.51520
SMILES: [H]C(=C([H])C([H])([H])C([H])([H])C([H])([H])C([H])([H])C([H])([H])[H])C([H])([H])C([H])=C([H])C([H])([H])C([H])([H])C([H])([H])C([H])([H])C([H])([H])C([H])([H])C([H])([H])C(=O)OC([H])([H])C([H])(OC(=O)C([H])([H])C([H])([H])C([H])([H])C([H])([H])C([H])([H])C([H])([H])C([H])([H])C([H])=C([H])C([H])([H])C([H])=C([H])C([H])([H])C([H])([H])C([H])([H])C([H])([H])C([H])([H])[H])C([H])([H])OP(=O)([O-])OC([H])([H])C([H])([H])[N+]([H])([H])[H]
InChI: InChI=1S/C41H74NO8P/c1-3-5-7-9-11-13-15-17-19-21-23-25-27-29-31-33-40(43)47-37-39(38-49-51(45,46)48-36-35-42)50-41(44)34-32-30-28-26-24-22-20-18-16-14-12-10-8-6-4-2/h11-14,17-20,39H,3-10,15-16,21-38,42H2,1-2H3,(H,45,46)
Instrument: waters xevo g2 TOF
Instrument type: ESI-TOF
Ms type: MS2
Ion mode: POSITIVE
Ionization: ESI
Collision energy: 0.6458333
Column name: Acquity CSHC18
Retention time: 10.763 min
Base peak: 740.52320
Precursor m/z: 740.52320
Precursor type: [M+H]+
m/z	relative intensity
55.0186	3
109.1018	11
121.1026	6
123.1176	12
126.9541	3
135.1171	4
136.9321	8
147.1174	3
161.9633	5
164.0091	17
192.9578	12
263.2375	32
264.2405	6
306.2793	10
307.2843	3
319.23	15
320.1984	6
335.166	4
337.2738	26
338.2764	3
369.2033	3
387.1698	4
455.1874	81
456.1909	23
457.1889	5
460.2814	6
478.2864	8
523.3819	4
533.3324	4
587.3813	6
588.3851	5
599.504	999
600.507	921
601.51	228
602.5119	21
618.3413	3
621.4843	10
646.9413	5
647.4429	4
719.4602	6
736.4286	3
740.5216	181
741.5258	168
