Mass spectrum: S-CARBOXYMETHYLCYSTEINE; LC-ESI-QTOF; MS2; CE: 40;  [M-H]-
Name: S-CARBOXYMETHYLCYSTEINE
Class: NA
Formula: C5H9NO4S
Exact mass: 179.02523
SMILES: NC(CSCC(O)=O)C(O)=O
InChI: InChI=1S/C5H9NO4S/c6-3(5(9)10)1-11-2-4(7)8/h3H,1-2,6H2,(H,7,8)(H,9,10)
Instrument: Agilent 6530Â Q-TOF LC/MS
Instrument type: LC-ESI-QTOF
Ms type: MS2
Ion mode: NEGATIVE
Ionization: ESI
Collision energy: 40
Column name: NA
Retention time: 0.200 min
Base peak: 178.02123
Precursor m/z: 178.02123
Precursor type: [M-H]-
Precursor intensity: 148
m/z	relative intensity
47.009	224
90.9877	999
