Mass spectrum: 3-Sulfinoalanine; LC-ESI-ITFT; MS2; CE: 100;  [M+H]+
Name: 3-Sulfinoalanine
Class: Organic acids and derivatives; Carboxylic acids and derivatives; Amino acids, peptides, and analogues
Formula: C3H7NO4S
Exact mass: 153.00958
SMILES: N[C@@H](CS(O)=O)C(O)=O
InChI: InChI=1S/C3H7NO4S/c4-2(3(5)6)1-9(7)8/h2H,1,4H2,(H,5,6)(H,7,8)/t2-/m0/s1
Instrument: Thermo Scientific Q-Exactive Focus
Instrument type: LC-ESI-ITFT
Ms type: MS2
Ion mode: POSITIVE
Ionization: ESI
Collision energy: 100
Column name: Acquity CSHC18
Retention time: NA
Base peak: 154.01685
Precursor m/z: 154.01685
Precursor type: [M+H]+
m/z	relative intensity
51.4557	884
54.0532	756
86.1862	755
111.7145	774
114.0465	779
117.3398	749
128.8518	999
130.7959	784
132.1101	742
159.2299	780
