Mass spectrum: L-TRYPTOPHANAMIDE; LC-ESI-QFT; MS2; CE: 30eV;  [M-H]-
Name: L-TRYPTOPHANAMIDE
Class: NA
Formula: C11H13N3O
Exact mass: 203.10586
SMILES: NC(CC1=CNC2=CC=CC=C12)C(N)=O
InChI: InChI=1S/C11H13N3O/c12-9(11(13)15)5-7-6-14-10-4-2-1-3-8(7)10/h1-4,6,9,14H,5,12H2,(H2,13,15)
Instrument: Q-Exactive Orbitrap, Thermo Scientfic; Ultimate 3000 HPLC, Thermo Scientfic
Instrument type: LC-ESI-QFT
Ms type: MS2
Ion mode: NEGATIVE
Ionization: ESI
Collision energy: 30eV
Column name: Acquity CSHC18
Retention time: 2.136 min
Base peak: 202.0986
Precursor m/z: 202.0986
Precursor type: [M-H]-
Precursor intensity: 139
m/z	relative intensity
57.2383	400
57.3372	322
63.9118	322
68.093	332
71.1138	395
95.2441	407
127.9305	545
137.4443	396
173.9955	473
193.4069	408
202.098	999
206.0414	480
