Mass spectrum: Chrysoeriol 7-O-(6''-malonyl-glucoside); LC-ESI-QTOF; MS2; CE: 20-40eV;  [M+H]+
Name: Chrysoeriol 7-O-(6''-malonyl-glucoside)
Class: flavonoid
Formula: C25H24O14
Exact mass: 548.1166
SMILES: COC=1C=C(C=CC1O)C2=CC(C3=C(C=C(C=C3O2)OC4(C(C(C(C(COC(CC(=O)O)=O)(O4)[H])(O)[H])(O)[H])(O)[H])[H])O)=O
InChI: InChI=1S/C25H24O14/c1-35-16-4-10(2-3-12(16)26)15-7-14(28)21-13(27)5-11(6-17(21)38-15)37-25-24(34)23(33)22(32)18(39-25)9-36-20(31)8-19(29)30/h2-7,18,22-27,32-34H,8-9H2,1H3,(H,29,30)
Instrument: Impact II, Bruker; Dionex 3000, Thermo Scientific
Instrument type: LC-ESI-QTOF
Ms type: MS2
Ion mode: POSITIVE
Ionization: ESI
Collision energy: 20-40eV
Column name: Acquity CSHC18
Retention time: 7.371 min
Base peak: 549.1206
Precursor m/z: 549.1206
Precursor type: [M+H]+
Precursor intensity: 1203.75
m/z	relative intensity
177.0531	86
286.0436	113
301.0695	999
302.0716	224
549.1224	198
