Mass spectrum: Propionylcarnitine; LC-ESI-ITFT; MS2; CE: 100;  [M+H]+
Name: Propionylcarnitine
Class: Lipids and lipid-like molecules; Fatty Acyls; Fatty acid esters
Formula: C10H19NO4
Exact mass: 217.13141
SMILES: CCC(=O)OC(CC([O-])=O)C[N+](C)(C)C
InChI: InChI=1S/C10H19NO4/c1-5-10(14)15-8(6-9(12)13)7-11(2,3)4/h8H,5-7H2,1-4H3
Instrument: Thermo Scientific Q-Exactive Focus
Instrument type: LC-ESI-ITFT
Ms type: MS2
Ion mode: POSITIVE
Ionization: ESI
Collision energy: 100
Column name: Acquity CSHC18
Retention time: 2.572 min
Base peak: 218.13869
Precursor m/z: 218.13869
Precursor type: [M+H]+
m/z	relative intensity
53.0027	103
58.0656	999
68.0499	91
69.1948	41
76.1412	43
98.0205	43
193.8395	42
202.9517	42
210.2589	49
233.2297	40
