Mass spectrum: DEOXYURIDINE-MONOPHOSPHATE; LC-ESI-QTOF; MS2; CE: 10;  [M+H]+
Name: DEOXYURIDINE-MONOPHOSPHATE
Class: NA
Formula: C9H13N2O8P
Exact mass: 308.0410
SMILES: O[C@H]1C[C@@H](O[C@@H]1COP(O)(O)=O)N1C=CC(=O)NC1=O
InChI: InChI=1S/C9H13N2O8P/c12-5-3-8(11-2-1-7(13)10-9(11)14)19-6(5)4-18-20(15,16)17/h1-2,5-6,8,12H,3-4H2,(H,10,13,14)(H2,15,16,17)/t5-,6+,8+/m0/s1
Instrument: Agilent 6530Â Q-TOF LC/MS
Instrument type: LC-ESI-QTOF
Ms type: MS2
Ion mode: POSITIVE
Ionization: ESI
Collision energy: 10
Column name: NA
Retention time: 0.200 min
Base peak: 309.05061
Precursor m/z: 309.05061
Precursor type: [M+H]+
Precursor intensity: 122.5
m/z	relative intensity
50.2672	76
50.4888	518
59.3788	557
80.5195	678
81.2147	864
81.5259	922
142.9874	941
150.2534	999
