Mass spectrum: Lauric acid; LC-ESI-QTOF; MS2; CE: 15.00;  [M+H]+
Name: Lauric acid
Class: NA
Formula: C12H24O2
Exact mass: 200.1776
SMILES: CCCCCCCCCCCC(=O)O
InChI: InChI=1S/C12H24O2/c1-2-3-4-5-6-7-8-9-10-11-12(13)14/h2-11H2,1H3,(H,13,14)
Instrument: Bruker MicrOTOF-Q
Instrument type: LC-ESI-QTOF
Ms type: MS2
Ion mode: POSITIVE
Ionization: ESI
Collision energy: 15.00
Column name: Acquity CSHC18
Retention time: NA
Base peak: 201.1849
Precursor m/z: 201.1849
Precursor type: [M+H]+
m/z	relative intensity
113.0938	485
121.0794	346
122.1012	374
135.1527	333
139.1177	360
140.5832	582
147.0791	485
158.595	444
163.1532	555
201.1965	999
202.1868	388
239.1325	305
257.1328	666
