Mass spectrum: 1-stearoyl-2-oleoyl-sn-glycero-3-phosphoethanolamine; ESI-TOF; MS2; CE: 6.0000000;  [M+H]+
Name: 1-stearoyl-2-oleoyl-sn-glycero-3-phosphoethanolamine
Class: NA
Formula: C41H80NO8P
Exact mass: 745.56216
SMILES: [H]C(=C([H])C([H])([H])C([H])([H])C([H])([H])C([H])([H])C([H])([H])C([H])([H])C([H])([H])C([H])([H])[H])C([H])([H])C([H])([H])C([H])([H])C([H])([H])C([H])([H])C([H])([H])C([H])([H])C(=O)OC([H])(C([H])([H])OC(=O)C([H])([H])C([H])([H])C([H])([H])C([H])([H])C([H])([H])C([H])([H])C([H])([H])C([H])([H])C([H])([H])C([H])([H])C([H])([H])C([H])([H])C([H])([H])C([H])([H])C([H])([H])C([H])([H])C([H])([H])[H])C([H])([H])OP(=O)([O-])OC([H])([H])C([H])([H])[N+]([H])([H])[H]
InChI: InChI=1S/C41H80NO8P/c1-3-5-7-9-11-13-15-17-19-21-23-25-27-29-31-33-40(43)47-37-39(38-49-51(45,46)48-36-35-42)50-41(44)34-32-30-28-26-24-22-20-18-16-14-12-10-8-6-4-2/h18,20,39H,3-17,19,21-38,42H2,1-2H3,(H,45,46)
Instrument: waters xevo g2 TOF
Instrument type: ESI-TOF
Ms type: MS2
Ion mode: POSITIVE
Ionization: ESI
Collision energy: 6.0000000
Column name: Acquity CSHC18
Retention time: 11.635 min
Base peak: 746.57016
Precursor m/z: 746.57016
Precursor type: [M+H]+
m/z	relative intensity
99.9693	5
99.9694	4
99.97	7
99.9701	6
214.9177	7
265.253	1
392.7619	57
393.2634	40
393.7644	8
393.7656	8
411.7359	3
412.2392	5
459.2206	1
605.5509	114
606.5545	48
607.5559	10
723.9889	4
724.4862	4
741.4747	22
742.4777	13
746.5693	999
747.5733	477
748.5753	125
749.5799	24
765.5431	74
766.0446	31
766.5459	31
767.0461	8
767.5441	3
768.5519	66
769.5554	31
773.535	6
784.5173	12
785.021	5
785.5204	4
793.0077	5
1138.3264	20
1138.8276	27
1139.3298	20
1139.8354	9
1140.3366	3
1157.2993	2
1157.799	8
1158.298	4
