Mass spectrum: 16,16-dimethyl Prostaglandin E2 p-(p-acetamidobenzamido) phenyl ester; ESI-TOF; MS2; CE: 0.6458333;  [M+H]+
Name: 16,16-dimethyl Prostaglandin E2 p-(p-acetamidobenzamido) phenyl ester
Class: NA
Formula: C37H48N2O7
Exact mass: 632.34615
SMILES: O=C1[C@H](C/C=C\CCCC(OC2=CC=C(NC(C3=CC=C(NC(C)=O)C=C3)=O)C=C2)=O)[C@@H](/C=C/[C@@H](O)C(C)(C)CCCC)[C@H](O)C1
InChI: InChI=1S/C37H48N2O7/c1-5-6-23-37(3,4)34(43)22-21-31-30(32(41)24-33(31)42)11-9-7-8-10-12-35(44)46-29-19-17-28(18-20-29)39-36(45)26-13-15-27(16-14-26)38-25(2)40/h7,9,13-22,30-31,33-34,42-43H,5-6,8,10-12,23-24H2,1-4H3,(H,38,40)(H,39,45)/b9-7-,22-21+/t30-,31-,33-,34-/m1/s1
Instrument: waters xevo g2 TOF
Instrument type: ESI-TOF
Ms type: MS2
Ion mode: POSITIVE
Ionization: ESI
Collision energy: 0.6458333
Column name: Acquity CSHC18
Retention time: 4.533 min
Base peak: 633.35415
Precursor m/z: 633.35415
Precursor type: [M+H]+
m/z	relative intensity
105.0715	2
107.0487	1
119.0866	3
120.0456	47
121.102	2
131.0858	2
133.1028	3
137.0634	1
147.083	2
149.1344	3
151.1122	3
157.1017	4
159.079	2
161.0965	3
162.0562	999
163.0596	98
171.1177	2
183.1168	2
197.0945	4
199.1527	5
215.1074	18
217.159	4
219.1034	5
225.1621	7
227.1441	1
229.1307	1
233.1171	34
234.1206	2
243.1758	37
244.1782	5
271.1452	249
272.1104	72
301.2172	2
309.1384	29
310.2267	5
318.1434	8
327.2317	198
328.234	53
329.2369	2
345.2401	62
346.245	9
433.2136	7
436.2845	14
437.2756	2
503.2186	49
504.2221	12
543.3267	2
545.3361	7
553.3065	1
555.3133	3
580.33	6
597.3328	165
598.3354	62
615.3429	262
616.3463	108
617.3507	24
