Mass spectrum: KYNURENATE; LC-ESI-QTOF; MS2; CE: 20;  [M+H]+
Name: KYNURENATE
Class: NA
Formula: C10H7NO3
Exact mass: 189.04259
SMILES: OC(=O)C1=CC(=O)C2=CC=CC=C2N1
InChI: InChI=1S/C10H7NO3/c12-9-5-8(10(13)14)11-7-4-2-1-3-6(7)9/h1-5H,(H,11,12)(H,13,14)
Instrument: Agilent 6530Â Q-TOF LC/MS
Instrument type: LC-ESI-QTOF
Ms type: MS2
Ion mode: POSITIVE
Ionization: ESI
Collision energy: 20
Column name: NA
Retention time: 0.200 min
Base peak: 190.05342
Precursor m/z: 190.05342
Precursor type: [M+H]+
Precursor intensity: 194.5
m/z	relative intensity
89.0179	9
89.0233	52
89.0287	125
89.0341	166
89.0395	153
89.0449	123
89.0503	93
89.0557	70
89.0612	51
89.0666	40
89.072	29
89.0774	22
89.0828	16
89.0882	14
89.0936	11
101.0287	11
101.0345	14
101.0403	13
101.046	9
116.0295	35
116.0357	153
116.0419	260
116.048	273
116.0542	225
116.0604	176
116.0666	136
116.0727	105
116.0789	82
116.0851	63
116.0913	47
116.0974	36
116.1036	26
116.1098	17
116.116	12
116.1221	10
144.0178	50
144.0247	346
144.0315	803
144.0384	999
144.0453	907
144.0522	734
144.059	578
144.0659	445
144.0728	345
144.0797	267
144.0866	203
144.0934	149
144.1003	109
144.1072	79
144.1141	59
144.121	52
144.1278	41
144.1347	30
144.1416	24
144.1485	18
144.1554	14
144.1622	9
144.238	9
172.0224	9
172.0299	19
172.0375	21
172.045	18
172.0525	15
172.06	13
172.0675	10
