Mass spectrum: Palmitic acid; LC-ESI-QTOF; MS2; CE: 15 / 50;  [M-H]-
Name: Palmitic acid
Class: NA
Formula: C16H32O2
Exact mass: 256.2402
SMILES: CCCCCCCCCCCCCCCC(=O)O
InChI: InChI=1S/C16H32O2/c1-2-3-4-5-6-7-8-9-10-11-12-13-14-15-16(17)18/h2-15H2,1H3,(H,17,18)
Instrument: impact II
Instrument type: LC-ESI-QTOF
Ms type: MS2
Ion mode: NEGATIVE
Ionization: ESI
Collision energy: 15 / 50
Column name: Acquity CSHC18
Retention time: 0.681 min
Base peak: 255.2332
Precursor m/z: 255.2332
Precursor type: [M-H]-
m/z	relative intensity
255.2332	999
256.2367	229
