Mass spectrum: Cadaverine; LC-ESI-ITFT; MS2; CE: 100;  [M+H]+
Name: Cadaverine
Class: Organic nitrogen compounds; Organonitrogen compounds; Amines
Formula: C5H14N2
Exact mass: 102.11570
SMILES: NCCCCCN
InChI: InChI=1S/C5H14N2/c6-4-2-1-3-5-7/h1-7H2
Instrument: Thermo Scientific Q-Exactive Focus
Instrument type: LC-ESI-ITFT
Ms type: MS2
Ion mode: POSITIVE
Ionization: ESI
Collision energy: 100
Column name: Acquity CSHC18
Retention time: 2.512 min
Base peak: 103.12298
Precursor m/z: 103.12298
Precursor type: [M+H]+
m/z	relative intensity
50.6963	110
51.7171	124
53.0027	999
62.2411	124
63.3693	111
74.9535	116
84.5303	113
85.5931	119
104.8742	119
116.4959	120
