Mass spectrum: Abscisic acid; LC-ESI-ITFT; MS2; CE: 35;  [M-H]-
Name: Abscisic acid
Class: Sequiterpenes
Formula: C15H20O4
Exact mass: 264.1362
SMILES: CC(C(=C(C1(C(C)=CC(CC1(C)C)=O)O)[H])[H])=C(C(=O)O)[H]
InChI: InChI=1S/C15H20O4/c1-10(7-13(17)18)5-6-15(19)11(2)8-12(16)9-14(15,3)4/h5-8,19H,9H2,1-4H3,(H,17,18)
Instrument: LTQ-Orbitrap Elite, Thermo Scientific Ultimate 3000 ultra-high-pressure liquid chromatography, Thermo Scientific
Instrument type: LC-ESI-ITFT
Ms type: MS2
Ion mode: NEGATIVE
Ionization: ESI
Collision energy: 35
Column name: Acquity CSHC18
Retention time: 8.121 min
Base peak: 263.1290
Precursor m/z: 263.1290
Precursor type: [M-H]-
Precursor intensity: 139534.7
m/z	relative intensity
111.0453	78
136.0527	70
139.0763	124
151.0764	265
152.0839	249
201.1276	215
204.1158	357
219.1391	999
