Mass spectrum: Quercetin 3-rutinoside; LC-ESI-QTOF; MS2; CE: 20-40eV;  [M+H]+
Name: Quercetin 3-rutinoside
Class: flavonoid
Formula: C27H30O16
Exact mass: 610.1534
SMILES: CC1(C(C(C(C(OCC2(C(C(C(C(O2)(OC=3C(C4=C(C=C(C=C4OC3C=5C=CC(=C(C5)O)O)O)O)=O)[H])(O)[H])(O)[H])(O)[H])[H])(O1)[H])(O)[H])(O)[H])(O)[H])[H]
InChI: InChI=1S/C27H30O16/c1-8-17(32)20(35)22(37)26(40-8)39-7-15-18(33)21(36)23(38)27(42-15)43-25-19(34)16-13(31)5-10(28)6-14(16)41-24(25)9-2-3-11(29)12(30)4-9/h2-6,8,15,17-18,20-23,26-33,35-38H,7H2,1H3
Instrument: Impact II, Bruker; Dionex 3000, Thermo Scientific
Instrument type: LC-ESI-QTOF
Ms type: MS2
Ion mode: POSITIVE
Ionization: ESI
Collision energy: 20-40eV
Column name: Acquity CSHC18
Retention time: 4.615 min
Base peak: 611.1583
Precursor m/z: 611.1583
Precursor type: [M+H]+
Precursor intensity: 2759.75
m/z	relative intensity
121.027	50
131.0551	29
145.05	44
147.0652	58
151.0357	47
216.9795	30
283.0822	47
289.0681	49
289.0903	31
293.016	30
303.0496	999
304.0525	192
325.1113	29
465.1037	90
466.1064	58
573.3089	29
