Mass spectrum: Cnidicin; LC-ESI-ITFT; MS2; CE: 45eV;  [M+H]+
Name: Cnidicin
Class: coumarin
Formula: C21H22O5
Exact mass: 354.1467
SMILES: CC(=CCOC1=C2C=COC2=C(C3=C1C=CC(=O)O3)OCC=C(C)C)C
InChI: InChI=1S/C21H22O5/c1-13(2)7-10-23-18-15-5-6-17(22)26-20(15)21(25-11-8-14(3)4)19-16(18)9-12-24-19/h5-9,12H,10-11H2,1-4H3
Instrument: LTQ Orbitrap XL, Thermo Scientfic; Dionex Ultimate 300
Instrument type: LC-ESI-ITFT
Ms type: MS2
Ion mode: POSITIVE
Ionization: ESI
Collision energy: 45eV
Column name: Alltima C18
Retention time: 25.85 min
Base peak: 355.1529
Precursor m/z: 355.1529
Precursor type: [M+H]+
m/z	relative intensity
134.9285	7
175.0344	999
198.8524	11
213.0619	84
215.095	606
241.1796	149
255.0028	93
284.465	107
