Mass spectrum: Bisphenol A mono-B-D-glucuronide; ESI-TOF; MS2; CE: 6.0000000;  [M+H]+
Name: Bisphenol A mono-B-D-glucuronide
Class: NA
Formula: C21H24O8
Exact mass: 404.14712
SMILES: CC(C)(C1=CC=C(C=C1)O)C2=CC=C(C=C2)O[C@H]3C(C([C@H](C(O3)C(=O)O)O)O)O
InChI: InChI=1S/C21H24O8/c1-21(2,11-3-7-13(22)8-4-11)12-5-9-14(10-6-12)28-20-17(25)15(23)16(24)18(29-20)19(26)27/h3-10,15-18,20,22-25H,1-2H3,(H,26,27)/t15?,16-,17?,18?,20-/m1/s1
Instrument: waters xevo g2 TOF
Instrument type: ESI-TOF
Ms type: MS2
Ion mode: POSITIVE
Ionization: ESI
Collision energy: 6.0000000
Column name: Acquity CSHC18
Retention time: 2.772 min
Base peak: 405.15512
Precursor m/z: 405.15512
Precursor type: [M+H]+
m/z	relative intensity
98.976	1
107.0496	1
110.9761	1
135.0816	410
136.0848	41
141.0189	39
159.0303	70
181.0134	1
182.051	33
191.0564	52
199.0235	32
213.0915	84
222.0543	113
228.1151	55
231.1013	98
267.0691	1
275.0929	95
285.0397	1
286.0471	1
293.1015	69
294.1251	37
295.1321	118
301.0607	52
305.1209	1
310.0716	63
333.1137	61
351.124	173
369.1367	254
370.1352	64
405.9857	46
422.1819	447
423.1843	104
424.1264	105
424.6307	58
427.1373	999
428.1399	233
429.1429	39
443.1009	388
444.1056	84
458.0697	324
459.073	199
460.0754	40
461.0773	155
489.1063	43
499.0928	73
626.2033	46
626.6999	35
831.2826	84
832.2849	41
863.2152	28
