Mass spectrum: (-)-Jasmonic acid; LC-ESI-QTOF; MS2; CE: 35.00;  [2M+H]+
Name: (-)-Jasmonic acid
Class: NA
Formula: C12H18O3
Exact mass: 210.1256
SMILES: CCC=CCC1C(CCC1=O)CC(=O)O
InChI: InChI=1S/C12H18O3/c1-2-3-4-5-10-9(8-12(14)15)6-7-11(10)13/h3-4,9-10H,2,5-8H2,1H3,(H,14,15)
Instrument: Bruker MicrOTOF-Q
Instrument type: LC-ESI-QTOF
Ms type: MS2
Ion mode: POSITIVE
Ionization: ESI
Collision energy: 35.00
Column name: Acquity CSHC18
Retention time: NA
Base peak: 421.2585
Precursor m/z: 421.2585
Precursor type: [2M+H]+
m/z	relative intensity
93.07	18
117.18	18
127.75	18
137.06	18
143.56	18
147.265	28
149.1	18
151.1667	87
152.11	37
154.55	18
155.07	300
156.07	56
157.1	225
158.1	37
160.09	18
161.76	18
165.29	564
166.13	225
167.105	18
169.11	244
170.09	37
170.64	18
173.09	18
174.29	18
175.52	549
177.12	56
178.33	18
181.12	18
183.14	56
191.11	18
192.254	22
194.0082	999
196.055	18
198.5867	25
201.18	18
211.44	785
214.19	18
216.07	18
270.45	18
304.02	18
330.91	18
340.48	18
379.65	18
385.87	18
468.45	18
521.37	18
556.38	18
730.34	18
971.89	18
