Mass spectrum: Auraptene; LC-ESI-ITFT; MS2; CE: 45eV;  [M+H]+
Name: Auraptene
Class: coumarin
Formula: C19H22O3
Exact mass: 298.1569
SMILES: CC(=CCCC(=CCOC1=CC2=C(C=C1)C=CC(=O)O2)C)C
InChI: InChI=1S/C19H22O3/c1-14(2)5-4-6-15(3)11-12-21-17-9-7-16-8-10-19(20)22-18(16)13-17/h5,7-11,13H,4,6,12H2,1-3H3
Instrument: LTQ Orbitrap XL, Thermo Scientfic; Dionex Ultimate 300
Instrument type: LC-ESI-ITFT
Ms type: MS2
Ion mode: POSITIVE
Ionization: ESI
Collision energy: 45eV
Column name: Alltima C18
Retention time: 26.45 min
Base peak: 299.1639
Precursor m/z: 299.1639
Precursor type: [M+H]+
m/z	relative intensity
92.9656	3
101.2115	2
135.1143	2
162.9295	999
172.0607	4
186.1554	4
188.968	511
196.9556	1
200.927	93
210.9536	4
214.9647	238
227.1604	9
229.0601	35
239.3195	4
242.5869	13
246.4558	1
253.1471	8
256.1963	7
269.0881	3
276.9789	1
