Mass spectrum: L-Glutamic acid; ESI-TOF; MS2; CE: 0.6458333;  [M+H]+
Name: L-Glutamic acid
Class: NA
Formula: C5H9NO4
Exact mass: 147.05316
SMILES: NC(CCC(O)=O)C(O)=O
InChI: InChI=1S/C5H9NO4/c6-3(5(9)10)1-2-4(7)8/h3H,1-2,6H2,(H,7,8)(H,9,10)
Instrument: waters xevo g2 TOF
Instrument type: ESI-TOF
Ms type: MS2
Ion mode: POSITIVE
Ionization: ESI
Collision energy: 0.6458333
Column name: Acquity CSHC18
Retention time: 0.535 min
Base peak: 148.06116
Precursor m/z: 148.06116
Precursor type: [M+H]+
m/z	relative intensity
72.9382	64
84.0456	999
85.039	46
96.962	420
100.992	47
101.9411	56
102.0557	81
113.9649	366
130.0512	106
135.0451	7
136.0629	8
138.9905	13
148.0613	96
240.0213	14
267.0067	8
318.7929	13
