Mass spectrum: Hippuric acid; LC-ESI-ITFT; MS2; CE: 100;  [M+H]+
Name: Hippuric acid
Class: Benzenoids; Benzene and substituted derivatives; Benzoic acids and derivatives
Formula: C9H9NO3
Exact mass: 179.05824
SMILES: OC(=O)CNC(=O)C1=CC=CC=C1
InChI: InChI=1S/C9H9NO3/c11-8(12)6-10-9(13)7-4-2-1-3-5-7/h1-5H,6H2,(H,10,13)(H,11,12)
Instrument: Thermo Scientific Q-Exactive Focus
Instrument type: LC-ESI-ITFT
Ms type: MS2
Ion mode: POSITIVE
Ionization: ESI
Collision energy: 100
Column name: Acquity CSHC18
Retention time: 1.963 min
Base peak: 180.06552
Precursor m/z: 180.06552
Precursor type: [M+H]+
m/z	relative intensity
50.0157	999
51.0235	830
53.0027	77
56.9653	105
65.0026	76
66.0105	18
74.0155	52
77.0388	7
91.0417	7
95.0492	6
