Mass spectrum: catechin; LC-ESI-ITFT; MS2; CE: 0.3;  [M-H]-
Name: catechin
Class: flavanols
Formula: C15H14O6
Exact mass: 290.0790
SMILES: C1C(C(OC2=CC(=CC(=C21)O)O)C3=CC(=C(C=C3)O)O)O
InChI: InChI=1S/C15H14O6/c16-8-4-11(18)9-6-13(20)15(21-14(9)5-8)7-1-2-10(17)12(19)3-7/h1-5,13,15-20H,6H2
Instrument: LTQ-Orbitrap XL hybrid mass spectrometer (Thermo Scientific)
Instrument type: LC-ESI-ITFT
Ms type: MS2
Ion mode: NEGATIVE
Ionization: ESI
Collision energy: 0.3
Column name: Acquity CSHC18
Retention time: 3.390 min
Base peak: 289.0712
Precursor m/z: 289.0712
Precursor type: [M-H]-
Precursor intensity: 11219010
m/z	relative intensity
79.358	2
86.9526	3
96.1412	2
97.1263	3
99.4237	3
101.0139	2
101.0458	3
109.03	15
111.4472	2
114.1267	3
120.8473	3
121.3545	4
122.6396	3
123.0456	7
123.059	3
123.1766	2
124.6413	3
125.0249	43
133.0322	3
135.0439	7
137.0247	38
147.0748	3
151.0404	18
151.2792	3
154.4053	3
154.6412	3
158.3396	3
159.0457	10
159.2933	3
161.0608	33
164.0111	7
165.0196	39
167.0351	24
167.063	5
167.161	3
170.0625	3
172.5223	3
175.0403	10
175.9656	3
179.035	152
180.7323	3
186.2646	3
186.767	3
187.0398	18
188.0478	17
194.8656	3
202.0624	4
203.0338	9
203.0711	107
205.0506	406
206.3341	4
206.9012	4
212.4929	3
213.715	3
216.6673	3
217.0489	4
217.0869	10
218.965	3
221.8836	4
227.0709	21
230.6504	3
231.0296	73
235.3383	3
237.2595	3
245.0296	6
245.0417	3
245.0818	999
245.1262	4
245.136	4
245.1472	4
247.0608	59
255.0418	4
264.3736	3
264.4521	3
271.0609	42
274.3205	4
275.1122	4
281.9916	3
287.1368	4
288.9273	4
289.0717	50
