Mass spectrum: Alpha-Tocopherol; ESI-TOF; MS2; CE: 0.6458333;  [M+H]+
Name: Alpha-Tocopherol
Class: NA
Formula: C29H50O2
Exact mass: 430.38108
SMILES: CC(C)CCCC(C)CCCC(C)CCCC1(C)CCC2=C(O1)C(C)=C(C)C(O)=C2C
InChI: InChI=1S/C29H50O2/c1-20(2)12-9-13-21(3)14-10-15-22(4)16-11-18-29(8)19-17-26-25(7)27(30)23(5)24(6)28(26)31-29/h20-22,30H,9-19H2,1-8H3
Instrument: waters xevo g2 TOF
Instrument type: ESI-TOF
Ms type: MS2
Ion mode: POSITIVE
Ionization: ESI
Collision energy: 0.6458333
Column name: Acquity CSHC18
Retention time: 10.351 min
Base peak: 431.38908
Precursor m/z: 431.38908
Precursor type: [M+H]+
m/z	relative intensity
57.0712	11
67.0552	32
69.0709	48
71.0867	53
79.0552	10
81.0709	59
83.0865	99
84.0901	3
85.1026	78
95.0853	65
97.102	127
98.1053	9
103.0551	2
104.0631	1
107.0866	2
109.0661	2
110.1057	2
111.1177	125
112.1207	10
119.0862	68
120.0899	4
121.084	7
122.0733	63
123.1175	25
125.097	27
135.0808	14
136.0887	21
137.0967	169
138.101	6
139.1123	5
145.1014	5
147.1171	4
149.0968	126
150.1002	8
151.1123	13
152.0696	17
153.1284	6
157.1022	2
161.0966	9
163.1125	260
164.0839	587
165.2035	999
166.095	478
173.1329	24
175.1122	87
176.1156	7
177.1035	142
178.0966	22
184.0658	42
184.5681	3
186.0656	9
187.1118	41
189.1473	39
190.0994	4
191.1071	157
192.1111	11
193.0711	15
201.1293	54
202.104	5
203.0876	2
205.0885	191
206.0927	27
207.1346	10
215.1437	33
216.1124	2
217.1596	8
218.1306	1
219.1388	111
220.1431	18
229.1593	14
230.1639	1
233.1541	53
234.1623	13
234.6666	4
243.1747	7
245.1892	2
247.1693	32
249.0431	4
257.1903	4
260.1044	1
261.1852	13
262.1883	3
271.2052	3
275.2	28
276.2043	2
285.2211	2
289.2528	16
303.232	34
304.236	7
317.2155	64
317.7168	17
318.219	6
331.2641	17
345.2794	16
346.2822	1
359.296	14
360.2989	3
371.3303	3
373.3114	14
374.3142	4
387.3275	27
388.33	7
399.3629	1
401.3418	67
402.3451	20
411.3628	62
412.3669	9
413.3769	13
415.3554	5
416.3696	1
417.3722	8
429.4978	2
431.2867	195
