Mass spectrum: D-Xylose; LC-ESI-QTOF; MS2; CE: -10, -35, -60V;  [M-H]-
Name: D-Xylose
Class: NA
Formula: C5H10O5
Exact mass: 150.0528
SMILES: C1C(C(C(C(O1)O)O)O)O
InChI: InChI=1S/C5H10O5/c6-2-1-10-5(9)4(8)3(2)7/h2-9H,1H2
Instrument: TripleToF 5600; Sciex
Instrument type: LC-ESI-QTOF
Ms type: MS2
Ion mode: NEGATIVE
Ionization: ESI
Collision energy: -10, -35, -60V
Column name: Acquity CSHC18
Retention time: 0.674 min
Base peak: 149.0471
Precursor m/z: 149.0471
Precursor type: [M-H]-
Precursor intensity: 84383.31
m/z	relative intensity
76.9674	289
76.9711	999
87.0469	419
94.982	419
141.0185	559
