Mass spectrum: URACIL 5-CARBOXYLATE; LC-ESI-QFT; MS2; CE: 30eV;  [M+H]+
Name: URACIL 5-CARBOXYLATE
Class: NA
Formula: C5H4N2O4
Exact mass: 156.01711
SMILES: C1=C(C(=O)NC(=O)N1)C(=O)O
InChI: InChI=1S/C5H4N2O4/c8-3-2(4(9)10)1-6-5(11)7-3/h1H,(H,9,10)(H2,6,7,8,11)
Instrument: Q-Exactive Orbitrap, Thermo Scientfic; Ultimate 3000 HPLC, Thermo Scientfic
Instrument type: LC-ESI-QFT
Ms type: MS2
Ion mode: POSITIVE
Ionization: ESI
Collision energy: 30eV
Column name: Acquity CSHC18
Retention time: 0.808 min
Base peak: 157.0244
Precursor m/z: 157.0244
Precursor type: [M+H]+
Precursor intensity: 189
m/z	relative intensity
50.7824	3
53.94	56
57.0345	6
57.4135	4
58.0661	5
58.327	3
59.3525	3
60.7445	4
61.1278	3
61.284	3
64.7542	3
66.8892	3
68.2336	3
68.9979	340
69.0707	17
70.0012	5
70.0295	4
70.9428	4
71.0248	48
71.9504	4
75.1928	4
84.4202	4
85.2322	3
86.0834	3
88.9531	10
95.0499	9
95.9742	5
96.0088	8
97.0084	5
97.0657	9
100.1128	49
102.1285	82
105.0454	5
105.9558	8
106.9927	19
107.5651	4
111.969	95
112.0877	6
112.9768	187
114.0192	233
115.9398	5
116.1077	24
121.2021	4
121.2067	4
123.9664	9
125.003	54
126.9559	8
128.0826	9
129.9794	49
133.9505	68
134.9578	5
139.0143	999
139.0761	6
139.1123	7
139.9637	8
140.0177	35
141.0007	9
144.9666	5
151.9613	48
154.6768	4
155.9753	20
156.0428	8
157.1087	11
157.9741	9
158.0219	43
158.0281	295
158.0974	5
158.1544	514
159.0293	7
