Mass spectrum: catechin; LC-ESI-ITFT; MS2; CE: 20/50eV;  [M-H]-
Name: catechin
Class: phenolic compound
Formula: C15H14O6
Exact mass: 290.0790
SMILES: C1C(C(OC2=CC(=CC(=C21)O)O)C3=CC(=C(C=C3)O)O)O
InChI: InChI=1S/C15H14O6/c16-8-4-11(18)9-6-13(20)15(21-14(9)5-8)7-1-2-10(17)12(19)3-7/h1-5,13,15-20H,6H2
Instrument: Bruker timsTOF
Instrument type: LC-ESI-ITFT
Ms type: MS2
Ion mode: NEGATIVE
Ionization: ESI
Collision energy: 20/50eV
Column name: Acquity CSHC18
Retention time: 3.870 min
Base peak: 289.0717
Precursor m/z: 289.0717
Precursor type: [M-H]-
Precursor intensity: 9017.19
m/z	relative intensity
137.0258	278
205.0499	333
245.0804	616
289.0706	999
