Mass spectrum: PREGNENOLONE SULFATE; LC-ESI-QTOF; MS2; CE: 20;  [M-H]-
Name: PREGNENOLONE SULFATE
Class: NA
Formula: C21H32O5S
Exact mass: 396.19705
SMILES: [H][C@@]12CC[C@H](C(C)=O)[C@@]1(C)CC[C@@]1([H])[C@@]2([H])CC=C2CC(CC[C@]12C)OS(O)(=O)=O
InChI: InChI=1S/C21H32O5S/c1-13(22)17-6-7-18-16-5-4-14-12-15(26-27(23,24)25)8-10-20(14,2)19(16)9-11-21(17,18)3/h4,15-19H,5-12H2,1-3H3,(H,23,24,25)/t15?,16-,17+,18-,19-,20-,21+/m0/s1
Instrument: Agilent 6530Â Q-TOF LC/MS
Instrument type: LC-ESI-QTOF
Ms type: MS2
Ion mode: NEGATIVE
Ionization: ESI
Collision energy: 20
Column name: NA
Retention time: 0.200 min
Base peak: 395.18622
Precursor m/z: 395.18622
Precursor type: [M-H]-
Precursor intensity: 184
m/z	relative intensity
96.9769	154
395.2219	960
396.1915	999
