Mass spectrum: L-Tryptophan; LC-ESI-ITFT; MS2; CE: 10;  [M+H]+
Name: L-Tryptophan
Class: Organoheterocyclic compounds; Indoles and derivatives; Indolyl carboxylic acids and derivatives
Formula: C11H12N2O2
Exact mass: 204.08988
SMILES: N[C@@H](CC1=CNC2=C1C=CC=C2)C(O)=O
InChI: InChI=1S/C11H12N2O2/c12-9(11(14)15)5-7-6-13-10-4-2-1-3-8(7)10/h1-4,6,9,13H,5,12H2,(H,14,15)/t9-/m0/s1
Instrument: Thermo Scientific Q-Exactive Focus
Instrument type: LC-ESI-ITFT
Ms type: MS2
Ion mode: POSITIVE
Ionization: ESI
Collision energy: 10
Column name: Acquity CSHC18
Retention time: 0.352 min
Base peak: 205.09715
Precursor m/z: 205.09715
Precursor type: [M+H]+
m/z	relative intensity
92.5226	4
118.0653	15
130.0653	2
132.0809	16
144.0808	31
146.0601	209
159.0917	38
170.0601	11
188.0707	999
205.0971	22
