Mass spectrum: 15-keto-17-phenyl trinor Prostaglandin F2-alpha ethyl amide; ESI-TOF; MS2; CE: 0.6458333;  [M+H]+
Name: 15-keto-17-phenyl trinor Prostaglandin F2-alpha ethyl amide
Class: NA
Formula: C25H35NO4
Exact mass: 413.25661
SMILES: CCNC(=O)CCC/C=C\C[C@H]1[C@@H](O)C[C@@H](O)[C@@H]1\C=C\C(=O)CCc1ccccc1
InChI: InChI=1S/C25H35NO4/c1-2-26-25(30)13-9-4-3-8-12-21-22(24(29)18-23(21)28)17-16-20(27)15-14-19-10-6-5-7-11-19/h3,5-8,10-11,16-17,21-24,28-29H,2,4,9,12-15,18H2,1H3,(H,26,30)/b8-3-,17-16+/t21-,22-,23+,24-/m1/s1
Instrument: waters xevo g2 TOF
Instrument type: ESI-TOF
Ms type: MS2
Ion mode: POSITIVE
Ionization: ESI
Collision energy: 0.6458333
Column name: Acquity CSHC18
Retention time: 3.341 min
Base peak: 414.26461
Precursor m/z: 414.26461
Precursor type: [M+H]+
m/z	relative intensity
72.0453	27
83.0855	12
91.0568	299
92.0587	11
93.071	27
95.0875	9
100.0773	13
105.0716	999
106.0745	68
107.0512	16
112.0776	9
114.0928	86
115.0543	6
117.0713	146
119.0873	58
121.0674	5
128.1081	65
129.0713	81
130.0747	6
131.0869	157
132.0893	15
133.1028	161
134.0696	6
135.0802	14
140.1093	19
141.0725	41
142.0802	14
143.0871	156
144.0968	20
145.1026	45
147.1179	39
149.0977	24
152.1084	5
154.1245	31
155.0855	25
156.1018	43
157.1023	287
158.1185	183
159.1185	393
160.122	35
161.0965	15
163.1125	19
167.0869	39
169.1021	57
171.0815	5
173.1345	82
175.1102	187
176.1151	26
177.0924	32
180.1377	10
181.1016	23
183.1185	148
185.097	323
186.1011	40
187.1116	56
188.1139	7
192.1049	6
193.103	21
194.1543	11
195.1185	22
197.0966	13
199.1118	11
201.1266	511
202.1331	58
203.1074	40
204.1398	27
204.5968	19
205.0977	20
206.156	11
209.0895	13
210.0596	4
211.1134	37
217.6093	2
219.1199	18
220.1713	339
221.1731	44
222.1482	20
223.1131	38
225.1231	8
230.1544	146
231.1568	23
233.1341	6
235.1109	60
237.1252	21
238.1793	26
245.1235	9
246.1859	400
247.1887	53
248.1643	25
249.1282	9
251.1434	8
258.1166	29
264.194	10
269.1339	6
273.1644	101
274.1051	7
279.175	11
287.1772	16
289.1599	53
290.1638	7
291.1723	30
297.1665	22
305.1881	13
307.1703	51
308.1756	8
315.173	69
333.1859	99
351.1969	25
352.2265	81
353.23	11
360.2323	114
361.2349	28
362.2346	4
370.2388	166
371.2413	33
378.2435	188
379.2462	48
380.2525	4
392.2124	14
395.1543	41
396.2074	36
397.2591	10
408.1852	75
414.2639	27
