Mass spectrum: farnesyl diphosphate; LC-ESI-QTOF; MS2; CE: -10, -35, -60V;  [M-H]-
Name: farnesyl diphosphate
Class: NA
Formula: C15H28O7P2
Exact mass: 382.1310
SMILES: CC(=CCCC(=CCCC(=CCOP(=O)(O)OP(=O)(O)O)C)C)C
InChI: InChI=1S/C15H28O7P2/c1-13(2)7-5-8-14(3)9-6-10-15(4)11-12-21-24(19,20)22-23(16,17)18/h7,9,11H,5-6,8,10,12H2,1-4H3,(H,19,20)(H2,16,17,18)
Instrument: TripleToF 5600; Sciex
Instrument type: LC-ESI-QTOF
Ms type: MS2
Ion mode: NEGATIVE
Ionization: ESI
Collision energy: -10, -35, -60V
Column name: Acquity CSHC18
Retention time: 19.478 min
Base peak: 381.1273
Precursor m/z: 381.1273
Precursor type: [M-H]-
Precursor intensity: 827176.1
m/z	relative intensity
78.7779	2
78.9597	756
80.9643	13
145.0507	4
158.909	147
158.9268	159
170.1266	2
210.164	5
212.1662	1
214.1448	6
235.1045	11
313.2495	11
363.1149	111
364.1244	18
379.2066	5
379.9107	15
379.9465	11
380.2217	9
381.1224	999
