Mass spectrum: L-Carnitine; LC-ESI-QTOF; MS2; CE: 30;  [M+H]+
Name: L-Carnitine
Class: NA
Formula: C7H15NO3
Exact mass: 161.10519
SMILES: C[N+](C)(C)CC(CC(=O)[O-])O
InChI: InChI=1S/C7H15NO3/c1-8(2,3)5-6(9)4-7(10)11/h6,9H,4-5H2,1-3H3
Instrument: impact II
Instrument type: LC-ESI-QTOF
Ms type: MS2
Ion mode: POSITIVE
Ionization: ESI
Collision energy: 30
Column name: Acquity CSHC18
Retention time: 1.673 min
Base peak: 162.11280
Precursor m/z: 162.11280
Precursor type: [M+H]+
m/z	relative intensity
57.034	346
58.066	395
59.0734	270
60.0815	967
85.0286	840
102.0913	999
103.0392	696
162.112	176
