Mass spectrum: Thymidine; LC-ESI-QTOF; MS2; CE: 28.89;  [2M+H]+
Name: Thymidine
Class: NA
Formula: C10H14N2O5
Exact mass: 242.0903
SMILES: CC1=CN(C(=O)NC1=O)C2CC(C(O2)CO)O
InChI: InChI=1S/C10H14N2O5/c1-5-3-12(10(16)11-9(5)15)8-2-6(14)7(4-13)17-8/h3,6-8,13-14H,2,4H2,1H3,(H,11,15,16)
Instrument: Bruker MicrOTOF-Q
Instrument type: LC-ESI-QTOF
Ms type: MS2
Ion mode: POSITIVE
Ionization: ESI
Collision energy: 28.89
Column name: Acquity CSHC18
Retention time: NA
Base peak: 485.1878
Precursor m/z: 485.1878
Precursor type: [2M+H]+
m/z	relative intensity
99.0398	7
109.0344	5
110.0204	26
117.0511	53
118.0521	1
127.0479	999
127.1823	2
127.2108	2
127.3527	1
127.4364	1
128.0511	55
129.0559	4
243.0927	2
