Mass spectrum: Citrulline; LC-ESI-ITFT; MS2; CE: 60;  [M+H]+
Name: Citrulline
Class: Organic acids and derivatives; Carboxylic acids and derivatives; Amino acids, peptides, and analogues
Formula: C6H13N3O3
Exact mass: 175.09569
SMILES: N[C@@H](CCCNC(N)=O)C(O)=O
InChI: InChI=1S/C6H13N3O3/c7-4(5(10)11)2-1-3-9-6(8)12/h4H,1-3,7H2,(H,10,11)(H3,8,9,12)/t4-/m0/s1
Instrument: Thermo Scientific Q-Exactive Focus
Instrument type: LC-ESI-ITFT
Ms type: MS2
Ion mode: POSITIVE
Ionization: ESI
Collision energy: 60
Column name: Acquity CSHC18
Retention time: 1.749 min
Base peak: 176.10297
Precursor m/z: 176.10297
Precursor type: [M+H]+
m/z	relative intensity
51.0236	170
53.0392	158
68.05	99
70.0657	999
77.039	49
89.039	65
95.0496	269
97.008	456
105.0451	73
120.0238	83
