Mass spectrum: 15(S)-15-methyl Prostaglandin E2; ESI-TOF; MS2; CE: 6.0000000;  [M+H]+
Name: 15(S)-15-methyl Prostaglandin E2
Class: NA
Formula: C21H34O5
Exact mass: 366.24062
SMILES: O[C@H]1[C@H](/C=C/[C@](O)(C)CCCCC)[C@@H](C/C=C\CCCC(O)=O)C(C1)=O
InChI: InChI=1S/C21H34O5/c1-3-4-9-13-21(2,26)14-12-17-16(18(22)15-19(17)23)10-7-5-6-8-11-20(24)25/h5,7,12,14,16-17,19,23,26H,3-4,6,8-11,13,15H2,1-2H3,(H,24,25)/b7-5-,14-12+/t16-,17-,19-,21+/m1/s1
Instrument: waters xevo g2 TOF
Instrument type: ESI-TOF
Ms type: MS2
Ion mode: POSITIVE
Ionization: ESI
Collision energy: 6.0000000
Column name: Acquity CSHC18
Retention time: 3.709 min
Base peak: 367.24862
Precursor m/z: 367.24862
Precursor type: [M+H]+
m/z	relative intensity
128.9902	6
149.0975	13
167.107	21
173.0965	11
175.0927	5
201.0919	22
207.1109	17
215.107	13
217.1198	14
219.1059	43
229.1588	34
230.1604	8
235.1349	8
237.1125	15
241.1954	25
243.2103	16
247.1696	13
249.183	22
259.2055	30
261.2181	10
267.209	11
269.1887	13
277.2047	63
279.2346	18
285.2207	29
287.2024	54
295.2058	162
296.2094	32
303.2327	38
306.217	6
313.1707	487
314.2201	209
315.2241	22
331.2283	999
332.2324	227
333.2318	29
349.2315	438
350.2411	92
368.2107	170
368.7121	97
369.2122	26
