Mass spectrum: Tyramine; LC-ESI-ITFT; MS2; CE: 10;  [M+H]+
Name: Tyramine
Class: Benzenoids; Benzene and substituted derivatives; Phenethylamines
Formula: C8H11NO
Exact mass: 137.08406
SMILES: NCCC1=CC=C(O)C=C1
InChI: InChI=1S/C8H11NO/c9-6-5-7-1-3-8(10)4-2-7/h1-4,10H,5-6,9H2
Instrument: Thermo Scientific Q-Exactive Focus
Instrument type: LC-ESI-ITFT
Ms type: MS2
Ion mode: POSITIVE
Ionization: ESI
Collision energy: 10
Column name: Acquity CSHC18
Retention time: 0.348 min
Base peak: 138.09134
Precursor m/z: 138.09134
Precursor type: [M+H]+
m/z	relative intensity
51.0236	1
53.0392	3
91.0546	18
92.5241	1
93.0702	45
95.0495	7
103.0546	23
121.0651	999
124.347	1
138.0913	2
