Mass spectrum: Formononetin; LC-ESI-QTOF; MS2; CE: 15.00;  [M+H]+
Name: Formononetin
Class: NA
Formula: C16H12O4
Exact mass: 268.0736
SMILES: COC1=CC=C(C=C1)C2=COC3=C(C2=O)C=CC(=C3)O
InChI: InChI=1S/C16H12O4/c1-19-12-5-2-10(3-6-12)14-9-20-15-8-11(17)4-7-13(15)16(14)18/h2-9,17H,1H3
Instrument: Bruker MicrOTOF-Q
Instrument type: LC-ESI-QTOF
Ms type: MS2
Ion mode: POSITIVE
Ionization: ESI
Collision energy: 15.00
Column name: Acquity CSHC18
Retention time: NA
Base peak: 269.0808
Precursor m/z: 269.0808
Precursor type: [M+H]+
m/z	relative intensity
213.0904	21
237.0541	34
253.0493	55
254.0568	85
269.0849	308
270.084	999
