Mass spectrum: Saccharopine; LC-ESI-ITFT; MS2; CE: 10;  [M+H]+
Name: Saccharopine
Class: Organic acids and derivatives; Carboxylic acids and derivatives; Amino acids, peptides, and analogues
Formula: C11H20N2O6
Exact mass: 276.13214
SMILES: N[C@@H](CCCCN[C@@H](CCC(O)=O)C(O)=O)C(O)=O
InChI: InChI=1S/C11H20N2O6/c12-7(10(16)17)3-1-2-6-13-8(11(18)19)4-5-9(14)15/h7-8,13H,1-6,12H2,(H,14,15)(H,16,17)(H,18,19)/t7-,8-/m0/s1
Instrument: Thermo Scientific Q-Exactive Focus
Instrument type: LC-ESI-ITFT
Ms type: MS2
Ion mode: POSITIVE
Ionization: ESI
Collision energy: 10
Column name: Acquity CSHC18
Retention time: 0.348 min
Base peak: 277.13940
Precursor m/z: 277.13940
Precursor type: [M+H]+
m/z	relative intensity
84.0811	255
130.0862	526
148.0602	6
195.1125	26
213.1231	733
231.1336	27
232.1178	3
259.1284	646
277.1389	999
277.1789	5
