Mass spectrum: Citrulline; LC-ESI-ITFT; MS2; CE: 40;  [M-H]-
Name: Citrulline
Class: Organic acids and derivatives; Carboxylic acids and derivatives; Amino acids, peptides, and analogues
Formula: C6H13N3O3
Exact mass: 175.09569
SMILES: N[C@@H](CCCNC(N)=O)C(O)=O
InChI: InChI=1S/C6H13N3O3/c7-4(5(10)11)2-1-3-9-6(8)12/h4H,1-3,7H2,(H,10,11)(H3,8,9,12)/t4-/m0/s1
Instrument: Thermo Scientific Q-Exactive Focus
Instrument type: LC-ESI-ITFT
Ms type: MS2
Ion mode: NEGATIVE
Ionization: ESI
Collision energy: 40
Column name: Acquity CSHC18
Retention time: 1.480 min
Base peak: 174.08841
Precursor m/z: 174.08841
Precursor type: [M-H]-
m/z	relative intensity
52.3012	184
61.9871	267
81.9938	200
90.9701	999
113.6262	203
118.9651	336
163.8101	188
177.2339	182
179.8034	185
188.9275	201
