Mass spectrum: Arginine; LC-ESI-QTOF; MS2; CE: 10;  [M+H]+
Name: Arginine
Class: NA
Formula: C6H14N4O2
Exact mass: 174.11168
SMILES: C(CC(C(=O)O)N)CN=C(N)N
InChI: InChI=1S/C6H14N4O2/c7-4(5(11)12)2-1-3-10-6(8)9/h4H,1-3,7H2,(H,11,12)(H4,8,9,10)
Instrument: impact II
Instrument type: LC-ESI-QTOF
Ms type: MS2
Ion mode: POSITIVE
Ionization: ESI
Collision energy: 10
Column name: Acquity CSHC18
Retention time: 1.846 min
Base peak: 175.11890
Precursor m/z: 175.11890
Precursor type: [M+H]+
m/z	relative intensity
60.0559	44
70.066	8
112.0866	8
116.0703	84
117.0725	6
130.0973	28
157.1086	11
158.0923	48
173.0773	6
175.1188	999
175.1353	52
175.2047	6
175.2135	7
175.2254	11
175.2455	7
176.0814	9
176.1215	47
176.1426	8
177.1006	7
