Mass spectrum: C14 Ceramide (d18:1/14:0); ESI-TOF; MS2; CE: 0.6458333;  [M+H]+
Name: C14 Ceramide (d18:1/14:0)
Class: NA
Formula: C32H63NO3
Exact mass: 509.48079
SMILES: [H]OC([H])([H])C([H])(N([H])C(=O)C([H])([H])C([H])([H])C([H])([H])C([H])([H])C([H])([H])C([H])([H])C([H])([H])C([H])([H])C([H])([H])C([H])([H])C([H])([H])C([H])([H])C([H])([H])[H])C([H])(O[H])C([H])=C([H])C([H])([H])C([H])([H])C([H])([H])C([H])([H])C([H])([H])C([H])([H])C([H])([H])C([H])([H])C([H])([H])C([H])([H])C([H])([H])C([H])([H])C([H])([H])[H]
InChI: InChI=1S/C32H63NO3/c1-3-5-7-9-11-13-15-16-18-19-21-23-25-27-31(35)30(29-34)33-32(36)28-26-24-22-20-17-14-12-10-8-6-4-2/h25,27,30-31,34-35H,3-24,26,28-29H2,1-2H3,(H,33,36)
Instrument: waters xevo g2 TOF
Instrument type: ESI-TOF
Ms type: MS2
Ion mode: POSITIVE
Ionization: ESI
Collision energy: 0.6458333
Column name: Acquity CSHC18
Retention time: 10.301 min
Base peak: 510.48879
Precursor m/z: 510.48879
Precursor type: [M+H]+
m/z	relative intensity
121.1027	4
135.1173	4
211.2066	2
214.9196	2
228.2327	23
247.2413	3
250.7112	20
251.2138	10
252.2698	110
253.2721	19
256.7115	16
257.214	5
264.2693	999
265.2727	226
266.2279	21
282.2799	136
283.283	28
284.2847	2
292.1954	11
293.1977	2
308.1686	2
462.4648	13
463.4707	3
474.468	34
475.4702	7
487.4419	2
492.4785	241
493.481	93
494.4853	17
495.4849	1
500.4127	2
510.4887	28
511.4918	10
