Mass spectrum: L-Cystine; ESI-TOF; MS2; CE: 0.6458333;  [M+H]+
Name: L-Cystine
Class: NA
Formula: C6H12N2O4S2
Exact mass: 240.02385
SMILES: NC(CSSCC(N)C(O)=O)C(O)=O
InChI: InChI=1S/C6H12N2O4S2/c7-3(5(9)10)1-13-14-2-4(8)6(11)12/h3-4H,1-2,7-8H2,(H,9,10)(H,11,12)
Instrument: waters xevo g2 TOF
Instrument type: ESI-TOF
Ms type: MS2
Ion mode: POSITIVE
Ionization: ESI
Collision energy: 0.6458333
Column name: Acquity CSHC18
Retention time: 0.540 min
Base peak: 241.03185
Precursor m/z: 241.03185
Precursor type: [M+H]+
m/z	relative intensity
74.0245	741
76.0223	166
90.9043	137
90.9513	15
96.9619	5
100.9329	94
101.965	272
102.091	98
105.001	5
113.0786	5
117.9806	5
120.0119	999
122.0275	471
123.0301	5
124.0236	5
126.9764	21
128.8735	46
130.9486	5
131.9308	269
131.9511	42
133.9296	94
135.9268	32
137.9881	5
142.9624	22
149.0068	5
151.9514	5
151.984	326
152.9883	5
153.9996	5
161.9118	38
162.9216	5
162.9907	5
172.9772	5
177.9994	5
182.9855	5
183.992	5
191.9397	15
195.026	5
201.0074	5
220.9441	5
241.0315	49
242.0347	5
243.028	5
244.8672	5
251.0908	5
258.8836	5
273.8917	5
276.8986	5
279.0872	5
293.9419	5
296.852	5
414.9631	5
