Mass spectrum: S-ADENOSYLHOMOCYSTEINE; LC-ESI-QFT; MS2; CE: 30eV;  [M+H]+
Name: S-ADENOSYLHOMOCYSTEINE
Class: NA
Formula: C14H20N6O5S
Exact mass: 384.12159
SMILES: N[C@@H](CCSC[C@H]1O[C@H]([C@H](O)[C@@H]1O)N1C=NC2=C(N)N=CN=C12)C(O)=O
InChI: InChI=1S/C14H20N6O5S/c15-6(14(23)24)1-2-26-3-7-9(21)10(22)13(25-7)20-5-19-8-11(16)17-4-18-12(8)20/h4-7,9-10,13,21-22H,1-3,15H2,(H,23,24)(H2,16,17,18)/t6-,7+,9+,10+,13+/m0/s1
Instrument: Q-Exactive Orbitrap, Thermo Scientfic; Ultimate 3000 HPLC, Thermo Scientfic
Instrument type: LC-ESI-QFT
Ms type: MS2
Ion mode: POSITIVE
Ionization: ESI
Collision energy: 30eV
Column name: Acquity CSHC18
Retention time: 1.001 min
Base peak: 385.1289
Precursor m/z: 385.1289
Precursor type: [M+H]+
Precursor intensity: 107
m/z	relative intensity
55.1708	1
56.0503	2
77.7151	1
88.0223	121
89.0256	1
90.038	1
97.0291	30
99.0447	16
102.0378	1
102.0555	1
105.0025	1
119.0356	1
134.0275	999
135.0265	2
135.0308	19
136.0621	952
137.0593	9
137.0655	22
138.8959	1
148.0429	4
160.0429	2
186.0586	2
204.0692	1
208.2499	1
232.0641	8
235.8996	1
250.0749	32
251.0784	1
253.694	1
391.3725	1
398.017	1
