Mass spectrum: SEROTONIN; LC-ESI-QTOF; MS2; CE: 10;  [M+H]+
Name: SEROTONIN
Class: NA
Formula: C10H12N2O
Exact mass: 176.09496
SMILES: NCCC1=CNC2=CC=C(O)C=C12
InChI: InChI=1S/C10H12N2O/c11-4-3-7-6-12-10-2-1-8(13)5-9(7)10/h1-2,5-6,12-13H,3-4,11H2
Instrument: Agilent 6530Â Q-TOF LC/MS
Instrument type: LC-ESI-QTOF
Ms type: MS2
Ion mode: POSITIVE
Ionization: ESI
Collision energy: 10
Column name: NA
Retention time: 0.200 min
Base peak: 177.10459
Precursor m/z: 177.10459
Precursor type: [M+H]+
Precursor intensity: 88.5
m/z	relative intensity
55.0211	19
57.0697	20
58.0611	20
59.0434	21
65.0264	22
67.0554	22
71.0845	23
77.0489	23
79.059	23
89.0483	23
90.0543	24
91.0578	25
93.0566	27
94.0461	27
103.0645	30
104.0501	31
105.0933	31
107.0559	34
115.1031	35
116.0613	37
117.0947	39
117.3025	47
118.0704	48
120.059	48
130.0846	51
131.0768	54
131.5069	55
132.1321	60
132.3309	64
133.0956	66
133.3933	66
134.0594	74
140.0438	77
141.0596	79
142.0996	80
142.4448	109
143.1022	162
144.0602	166
145.0593	221
148.088	229
158.0526	245
159.0991	315
159.2546	378
159.4371	569
159.6562	632
159.8808	759
161.0533	999
162.3256	19
177.1084	20
