Mass spectrum: (22S,25S)-N-Nitroso-22,26-imino-5alpha-cholestan-3beta,16beta-diol; APCI-ITFT; MS2; CE: CID 35;  [M-H]-
Name: (22S,25S)-N-Nitroso-22,26-imino-5alpha-cholestan-3beta,16beta-diol
Class: NA
Formula: C27H46N2O3
Exact mass: 446.35084
SMILES: C[C@H](CN1N=O)CC[C@H]1[C@@H](C)[C@H]2[C@@H](O)C[C@@]3([H])[C@]4([H])CC[C@@]5([H])C[C@@H](O)CC[C@]5(C)[C@@]4([H])CC[C@]23C
InChI: InChI=1S/C27H46N2O3/c1-16-5-8-23(29(15-16)28-32)17(2)25-24(31)14-22-20-7-6-18-13-19(30)9-11-26(18,3)21(20)10-12-27(22,25)4/h16-25,30-31H,5-15H2,1-4H3/t16-,17+,18-,19-,20+,21-,22-,23-,24-,25-,26-,27-/m0/s1
Instrument: Orbitrap Elite
Instrument type: APCI-ITFT
Ms type: MS2
Ion mode: NEGATIVE
Ionization: APCI
Collision energy: CID 35
Column name: Acquity CSHC18
Retention time: 0.130 min
Base peak: 445.34320
Precursor m/z: 445.34320
Precursor type: [M-H]-
Precursor intensity: 114853.4
m/z	relative intensity
122.6776	5
185.0951	5
206.753	6
239.7677	5
289.2152	10
312.2328	8
313.2501	9
315.2332	32
315.3236	6
329.2481	11
348.9611	6
379.2966	42
381.3182	28
383.2985	23
399.3262	999
407.3083	21
409.3201	397
427.2301	12
427.3358	387
