Mass spectrum: acteoside; LC-ESI-ITFT; MS2; CE: 0.3;  [M-H]-
Name: acteoside
Class: phenylpropanoid glycosides
Formula: C29H36O15
Exact mass: 624.2054
SMILES: CC1C(C(C(C(O1)OC2C(C(OC(C2OC(=O)C=CC3=CC(=C(C=C3)O)O)CO)OCCC4=CC(=C(C=C4)O)O)O)O)O)O
InChI: InChI=1S/C29H36O15/c1-13-22(36)23(37)24(38)29(41-13)44-27-25(39)28(40-9-8-15-3-6-17(32)19(34)11-15)42-20(12-30)26(27)43-21(35)7-4-14-2-5-16(31)18(33)10-14/h2-7,10-11,13,20,22-34,36-39H,8-9,12H2,1H3
Instrument: LTQ-Orbitrap XL hybrid mass spectrometer (Thermo Scientific)
Instrument type: LC-ESI-ITFT
Ms type: MS2
Ion mode: NEGATIVE
Ionization: ESI
Collision energy: 0.3
Column name: Acquity CSHC18
Retention time: 5.629 min
Base peak: 623.1968
Precursor m/z: 623.1968
Precursor type: [M-H]-
Precursor intensity: 8200895
m/z	relative intensity
184.1912	7
210.3525	7
215.3908	7
220.1652	7
222.9854	6
229.6241	5
245.6006	7
315.1065	12
336.1965	7
392.2886	7
402.4553	8
420.6029	8
437.5684	8
461.1655	999
474.0425	8
479.5337	8
498.9445	9
559.6944	8
601.4664	8
