Mass spectrum: N1-ACETYLSPERMINE; LC-ESI-QTOF; MS2; CE: 20;  [M+H]+
Name: N1-ACETYLSPERMINE
Class: NA
Formula: C12H28N4O
Exact mass: 244.22631
SMILES: CC(=O)NCCCNCCCCNCCCN
InChI: InChI=1S/C12H28N4O/c1-12(17)16-11-5-10-15-8-3-2-7-14-9-4-6-13/h14-15H,2-11,13H2,1H3,(H,16,17)
Instrument: Agilent 6530Â Q-TOF LC/MS
Instrument type: LC-ESI-QTOF
Ms type: MS2
Ion mode: POSITIVE
Ionization: ESI
Collision energy: 20
Column name: NA
Retention time: 0.200 min
Base peak: 245.23681
Precursor m/z: 245.23681
Precursor type: [M+H]+
Precursor intensity: 60.5
m/z	relative intensity
41.0503	13
42.0533	13
43.0421	13
44.0494	14
50.3481	14
55.0737	14
56.0649	14
57.0735	14
58.3977	14
59.0215	14
67.0595	14
68.0487	14
70.0944	15
72.5314	15
73.2013	15
73.3632	15
73.4712	15
75.0988	16
82.0726	16
83.7739	16
84.7298	16
85.8702	16
86.0978	17
88.4697	17
98.1177	17
100.8469	17
102.7111	18
102.8686	20
110.1063	20
111.2471	21
111.4061	21
112.9501	22
114.5585	28
114.8408	30
115.0829	31
115.2773	37
117.109	40
119.7158	42
127.139	45
128.1199	61
128.5257	64
128.6849	101
128.992	106
129.857	110
130.7541	125
131.0984	150
131.6765	188
141.1262	206
146.1609	209
153.1434	424
154.1201	443
171.7991	451
172.6464	601
172.9025	683
227.2351	951
245.2458	999
