Mass spectrum: 7-(methylthio)heptyl-glucosinolate; LC-ESI-QTOF; MS2; CE: 50eV;  [M-H]-
Name: 7-(methylthio)heptyl-glucosinolate
Class: aliphatic glucosinolate
Formula: C15H29NO9S3
Exact mass: 463.1004
SMILES: O[C@H]1[C@@H](O)[C@@H](O)[C@H](S/C(CCCCCCCSC)=N/OS(=O)(O)=O)O[C@@H]1CO
InChI: InChI=1S/C15H29NO9S3/c1-26-8-6-4-2-3-5-7-11(16-25-28(21,22)23)27-15-14(20)13(19)12(18)10(9-17)24-15/h10,12-15,17-20H,2-9H2,1H3,(H,21,22,23)/b16-11+/t10-,12-,13-,14-,15+/m1/s1
Instrument: TIMS-TOF Pro, Bruker Daltonik; Elute UHPLC System, Bruker Daltonik
Instrument type: LC-ESI-QTOF
Ms type: MS2
Ion mode: NEGATIVE
Ionization: ESI
Collision energy: 50eV
Column name: Acquity CSHC18
Retention time: 9.969 min
Base peak: 462.0820
Precursor m/z: 462.0820
Precursor type: [M-H]-
Precursor intensity: 21858.89
m/z	relative intensity
74.9892	825
76.9835	15
79.9556	303
80.964	15
95.9506	999
96.9572	906
97.958	19
98.953	30
195.0314	15
219.346	15
259.0077	15
274.982	23
412.8864	11
462.0786	12
