Mass spectrum: Hypotaurine; ESI-TOF; MS2; CE: 0.6458333;  [M+H]+
Name: Hypotaurine
Class: NA
Formula: C2H7NO2S
Exact mass: 109.01975
SMILES: NCCS(O)=O
InChI: InChI=1S/C2H7NO2S/c3-1-2-6(4)5/h1-3H2,(H,4,5)
Instrument: waters xevo g2 TOF
Instrument type: ESI-TOF
Ms type: MS2
Ion mode: POSITIVE
Ionization: ESI
Collision energy: 0.6458333
Column name: Acquity CSHC18
Retention time: 0.527 min
Base peak: 110.02775
Precursor m/z: 110.02775
Precursor type: [M+H]+
m/z	relative intensity
56.9432	47
87.9726	141
92.0171	2
92.967	20
95.9737	91
98.9696	165
102.1102	18
103.9596	2
108.9619	2
110.0277	139
111.0284	2
111.9962	2
113.9644	116
116.0037	175
116.9604	141
124.9563	2
126.0223	2
127.981	76
129.9684	27
130.967	182
137.9882	54
143.9594	2
146.9519	126
147.9649	220
154.9684	2
155.9979	152
156.9806	2
157.9818	16
159.97	257
161.9697	2
162.9891	26
163.9749	307
164.9547	125
173.869	94
175.9846	2
177.1287	2
177.9705	59
179.9652	940
180.951	2
181.9602	66
182.9741	2
184.9863	2
186.9223	10
188.9909	2
189.9758	77
194.965	2
201.865	20
204.974	2
207.9966	188
217.8614	86
219.858	17
235.0427	2
241.885	2
243.0056	203
245.0007	13
256.9939	59
258.9168	2
259.8905	2
263.8658	2
264.8709	2
267.9647	2
269.964	47
271.9582	999
272.9643	100
273.9573	2
274.9632	22
276.9286	2
289.892	2
294.9479	2
295.9516	12
296.9459	39
363.7947	2
366.0152	2
378.9838	2
380.9786	236
382.9741	2
396.9763	2
397.9799	2
402.9608	2
435.9058	2
451.8991	2
489.9935	2
491.0019	2
