Mass spectrum: Deoxyguanylic acid; LC-ESI-QTOF; MS2; CE: -10, -35, -60V;  [M-H]-
Name: Deoxyguanylic acid
Class: NA
Formula: C10H14N5O7P
Exact mass: 347.0631
SMILES: C1C(C(OC1N2C=NC3=C2NC(=NC3=O)N)COP(=O)(O)O)O
InChI: InChI=1S/C10H14N5O7P/c11-10-13-8-7(9(17)14-10)12-3-15(8)6-1-4(16)5(22-6)2-21-23(18,19)20/h3-6,16H,1-2H2,(H2,18,19,20)(H3,11,13,14,17)
Instrument: TripleToF 5600; Sciex
Instrument type: LC-ESI-QTOF
Ms type: MS2
Ion mode: NEGATIVE
Ionization: ESI
Collision energy: -10, -35, -60V
Column name: Acquity CSHC18
Retention time: 7.958 min
Base peak: 346.0564
Precursor m/z: 346.0564
Precursor type: [M-H]-
Precursor intensity: 14802.88
m/z	relative intensity
78.9591	999
133.015	118
346.0378	52
346.0536	465
