Mass spectrum: HOMOCYSTEINE; LC-ESI-QFT; MS2; CE: 30eV;  [M+H]+
Name: HOMOCYSTEINE
Class: NA
Formula: C4H9NO2S
Exact mass: 135.03540
SMILES: NC(CCS)C(O)=O
InChI: InChI=1S/C4H9NO2S/c5-3(1-2-8)4(6)7/h3,8H,1-2,5H2,(H,6,7)
Instrument: Q-Exactive Orbitrap, Thermo Scientfic; Ultimate 3000 HPLC, Thermo Scientfic
Instrument type: LC-ESI-QFT
Ms type: MS2
Ion mode: POSITIVE
Ionization: ESI
Collision energy: 30eV
Column name: Acquity CSHC18
Retention time: 0.608 min
Base peak: 136.0427
Precursor m/z: 136.0427
Precursor type: [M+H]+
Precursor intensity: 127
m/z	relative intensity
52.5314	2
56.0503	999
57.0536	14
57.0581	3
64.0216	2
64.7612	2
71.8899	2
72.6671	2
73.0114	207
74.0148	2
74.0244	16
74.0607	20
80.6901	2
84.0451	2
89.03	19
91.0348	3
91.0372	5
91.0412	59
91.0441	4
99.1159	3
100.0222	5
101.006	2
102.0555	47
107.5724	2
118.0326	218
119.0165	6
136.022	33
136.043	279
137.0462	2
