Mass spectrum: 3,4-DIHYDROXYPHENYLGLYCOL; LC-ESI-QTOF; MS2; CE: 40;  [M-H]-
Name: 3,4-DIHYDROXYPHENYLGLYCOL
Class: NA
Formula: C8H10O4
Exact mass: 170.05791
SMILES: OCC(O)C1=CC(O)=C(O)C=C1
InChI: InChI=1S/C8H10O4/c9-4-8(12)5-1-2-6(10)7(11)3-5/h1-3,8-12H,4H2
Instrument: Agilent 6530Â Q-TOF LC/MS
Instrument type: LC-ESI-QTOF
Ms type: MS2
Ion mode: NEGATIVE
Ionization: ESI
Collision energy: 40
Column name: NA
Retention time: 0.200 min
Base peak: 169.05146
Precursor m/z: 169.05146
Precursor type: [M-H]-
Precursor intensity: 161
m/z	relative intensity
41.014	178
43.0192	193
44.9992	204
49.0124	211
51.0239	228
65.0312	232
67.0185	233
76.9625	237
81.0345	256
89.0004	265
91.0161	290
92.0227	336
93.0432	400
105.0275	416
108.0222	438
121.0334	496
122.0449	663
123.0447	927
136.0121	999
