Mass spectrum: L-Cysteine; ESI-TOF; MS2; CE: 6.0000000;  [M+H]+
Name: L-Cysteine
Class: NA
Formula: C3H7NO2S
Exact mass: 121.01975
SMILES: NC(CS)C(O)=O
InChI: InChI=1S/C3H7NO2S/c4-2(1-7)3(5)6/h2,7H,1,4H2,(H,5,6)
Instrument: waters xevo g2 TOF
Instrument type: ESI-TOF
Ms type: MS2
Ion mode: POSITIVE
Ionization: ESI
Collision energy: 6.0000000
Column name: Acquity CSHC18
Retention time: 0.531 min
Base peak: 122.02775
Precursor m/z: 122.02775
Precursor type: [M+H]+
m/z	relative intensity
73.0289	1
74.0245	89
86.9912	6
88.0224	12
105.0009	31
106.9944	3
107.9946	1
113.9644	228
114.971	17
120.0118	122
121.0401	4
122.0276	256
124.0234	9
124.956	5
134.0276	89
136.9723	8
139.0501	2
142.0361	1
148.043	9
151.984	442
152.9847	30
153.9888	52
162.9212	9
177.9995	73
194.1184	4
195.0259	83
202.1811	1
205.9924	9
220.9454	3
224.005	17
241.0312	999
241.8854	11
242.0338	95
243.0283	109
244.03	7
249.884	2
279.0862	1
293.9432	16
294.9498	9
295.957	4
533.963	4
534.971	3
