Mass spectrum: Deoxycytidine; LC-ESI-ITFT; MS2; CE: 100;  [M-H]-
Name: Deoxycytidine
Class: Nucleosides, nucleotides, and analogues; Pyrimidine nucleosides; Pyrimidine 2'-deoxyribonucleosides
Formula: C9H13N3O4
Exact mass: 227.09061
SMILES: NC1=NC(=O)N(C=C1)[C@H]1C[C@H](O)[C@@H](CO)O1
InChI: InChI=1S/C9H13N3O4/c10-7-1-2-12(9(15)11-7)8-3-5(14)6(4-13)16-8/h1-2,5-6,8,13-14H,3-4H2,(H2,10,11,15)/t5-,6+,8+/m0/s1
Instrument: Thermo Scientific Q-Exactive Focus
Instrument type: LC-ESI-ITFT
Ms type: MS2
Ion mode: NEGATIVE
Ionization: ESI
Collision energy: 100
Column name: Acquity CSHC18
Retention time: 2.581 min
Base peak: 226.08333
Precursor m/z: 226.08333
Precursor type: [M-H]-
m/z	relative intensity
50.0024	452
65.0133	999
109.5194	60
133.8941	62
146.1019	56
172.0573	64
178.4043	56
189.8041	59
221.9527	56
242.4984	61
