Mass spectrum: Xanthotoxol geranyl ether; LC-ESI-ITFT; MS2; CE: 45eV;  [M+H]+
Name: Xanthotoxol geranyl ether
Class: coumarin
Formula: C21H22O4
Exact mass: 338.1518
SMILES: CC(=CCCC(=CCOC1=C2C(=CC3=C1OC=C3)C=CC(=O)O2)C)C
InChI: InChI=1S/C21H22O4/c1-14(2)5-4-6-15(3)9-11-24-21-19-17(10-12-23-19)13-16-7-8-18(22)25-20(16)21/h5,7-10,12-13H,4,6,11H2,1-3H3
Instrument: LTQ Orbitrap XL, Thermo Scientfic; Dionex Ultimate 300
Instrument type: LC-ESI-ITFT
Ms type: MS2
Ion mode: POSITIVE
Ionization: ESI
Collision energy: 45eV
Column name: Alltima C18
Retention time: 26.1 min
Base peak: 339.1586
Precursor m/z: 339.1586
Precursor type: [M+H]+
m/z	relative intensity
108.9448	7
111.0359	1
122.7973	1
136.9842	731
150.9893	1
175.0894	1
187.0188	1
191.2486	1
202.9589	999
213.1612	1
214.995	88
219.1384	1
227.0847	1
229.0352	51
230.9476	1
237.1775	1
238.6627	1
241.1526	1
243.1148	23
244.0871	1
247.2567	1
250.7568	1
254.3897	1
255.1563	1
256.3143	1
257.1728	4
265.155	1
267.1576	1
269.0781	2
270.2122	1
271.0394	6
279.1103	3
281.0915	2
283.2106	6
293.3031	1
296.9016	5
297.9889	9
302.692	2
303.3966	2
304.3674	1
310.9481	1
315.6949	3
320.3131	4
321.3038	17
