Mass spectrum: Epicatechin; LC-ESI-QFT; MS2; CE: NCE_15_30_57;  [M-H]-
Name: Epicatechin
Class: NA
Formula: C15H14O6
Exact mass: 290.0790
SMILES: C1C(C(OC2=CC(=CC(=C21)O)O)C3=CC(=C(C=C3)O)O)O
InChI: InChI=1S/C15H14O6/c16-8-4-11(18)9-6-13(20)15(21-14(9)5-8)7-1-2-10(17)12(19)3-7/h1-5,13,15-20H,6H2
Instrument: Thermo_Qexactive_Plus
Instrument type: LC-ESI-QFT
Ms type: MS2
Ion mode: NEGATIVE
Ionization: ESI
Collision energy: NCE_15_30_57
Column name: Acquity CSHC18
Retention time: 3.434 min
Base peak: 289.0726
Precursor m/z: 289.0726
Precursor type: [M-H]-
Precursor intensity: 147470300
m/z	relative intensity
57.0334	7
62.4498	7
72.619	7
81.0329	8
83.0126	8
95.049	8
97.0281	9
108.1149	9
108.9341	9
109.0302	9
110.0316	9
111.0435	9
121.0287	10
123.044	10
124.0482	10
125.0236	10
126.0268	10
127.531	11
135.0447	12
135.8978	12
137.0234	12
138.0308	14
139.04	14
145.0295	14
146.037	14
147.0449	14
149.024	14
151.039	14
159.0442	15
160.0523	15
161.0454	16
162.0316	16
163.0387	16
164.0104	17
165.0182	18
166.0272	20
167.0342	22
173.0621	26
174.0314	28
175.0553	29
177.0547	29
179.0353	30
180.0405	34
185.0604	34
186.0686	35
187.0402	36
188.0474	38
199.0752	42
201.0713	44
202.0626	51
203.0601	54
204.0749	55
205.0545	61
206.0539	62
212.0494	70
217.0665	71
221.0825	73
222.0867	73
227.0727	85
229.0507	107
230.0568	108
231.0297	113
245.0812	122
246.0849	129
247.0622	187
271.0627	194
272.0661	210
278.9268	322
289.0732	999
