Mass spectrum: Homovanillic acid; LC-ESI-ITFT; MS2; CE: 60;  [M-H]-
Name: Homovanillic acid
Class: Benzenoids; Phenols; Methoxyphenols
Formula: C9H10O4
Exact mass: 182.05791
SMILES: COC1=CC(CC(O)=O)=CC=C1O
InChI: InChI=1S/C9H10O4/c1-13-8-4-6(5-9(11)12)2-3-7(8)10/h2-4,10H,5H2,1H3,(H,11,12)
Instrument: Thermo Scientific Q-Exactive Focus
Instrument type: LC-ESI-ITFT
Ms type: MS2
Ion mode: NEGATIVE
Ionization: ESI
Collision energy: 60
Column name: Acquity CSHC18
Retention time: 2.033 min
Base peak: 181.05063
Precursor m/z: 181.05063
Precursor type: [M-H]-
m/z	relative intensity
50.9194	189
57.9745	999
77.1518	202
78.9578	615
79.9561	371
80.9156	175
84.9458	177
87.1852	177
92.5153	189
180.9745	215
