Mass spectrum: Glycylproline; ESI-TOF; MS2; CE: 0.6458333;  [M+H]+
Name: Glycylproline
Class: NA
Formula: C7H12N2O3
Exact mass: 172.08479
SMILES: NCC(=O)N1CCCC1C(O)=O
InChI: InChI=1S/C7H12N2O3/c8-4-6(10)9-3-1-2-5(9)7(11)12/h5H,1-4,8H2,(H,11,12)
Instrument: waters xevo g2 TOF
Instrument type: ESI-TOF
Ms type: MS2
Ion mode: POSITIVE
Ionization: ESI
Collision energy: 0.6458333
Column name: Acquity CSHC18
Retention time: 0.567 min
Base peak: 173.09279
Precursor m/z: 173.09279
Precursor type: [M+H]+
m/z	relative intensity
70.0658	999
71.0696	47
113.9643	274
116.0708	405
117.0739	26
127.0868	72
128.0906	1
135.9923	1
155.0818	1
156.0643	5
173.0922	40
174.0952	1
175.0967	1
195.0741	55
211.0406	28
228.0193	1
273.0138	1
345.1774	1
346.1778	1
367.1582	13
383.1269	12
398.0883	14
399.0961	1
570.1733	1
571.1785	1
573.1825	1
