Mass spectrum: pimelic acid; LC-ESI-QTOF; MS2; CE: -10, -35, -60V;  [M-H]-
Name: pimelic acid
Class: NA
Formula: C7H12O4
Exact mass: 160.0736
SMILES: C(CCC(=O)O)CCC(=O)O
InChI: InChI=1S/C7H12O4/c8-6(9)4-2-1-3-5-7(10)11/h1-5H2,(H,8,9)(H,10,11)
Instrument: TripleToF 5600; Sciex
Instrument type: LC-ESI-QTOF
Ms type: MS2
Ion mode: NEGATIVE
Ionization: ESI
Collision energy: -10, -35, -60V
Column name: Acquity CSHC18
Retention time: 10.249 min
Base peak: 159.0668
Precursor m/z: 159.0668
Precursor type: [M-H]-
Precursor intensity: 355744.9
m/z	relative intensity
73.0261	3
93.0351	3
95.0474	85
97.0645	293
115.0742	100
141.0538	63
159.0659	999
