Mass spectrum: Kaempferol-3-O-glucorhamnoside; LC-ESI-QTOF; MS2; CE: 50eV;  [M-H]-
Name: Kaempferol-3-O-glucorhamnoside
Class: Flavonol
Formula: C27H30O15
Exact mass: 594.1585
SMILES: CC1C(C(C(C(O1)OC2C(C(C(OC2OC3=C(OC4=CC(=CC(=C4C3=O)O)O)C5=CC=C(C=C5)O)CO)O)O)O)O)O
InChI: InChI=1S/C27H30O15/c1-9-17(32)20(35)22(37)26(38-9)42-25-21(36)18(33)15(8-28)40-27(25)41-24-19(34)16-13(31)6-12(30)7-14(16)39-23(24)10-2-4-11(29)5-3-10/h2-7,9,15,17-18,20-22,25-33,35-37H,8H2,1H3
Instrument: TIMS-TOF Pro, Bruker Daltonik; Elute UHPLC System, Bruker Daltonik
Instrument type: LC-ESI-QTOF
Ms type: MS2
Ion mode: NEGATIVE
Ionization: ESI
Collision energy: 50eV
Column name: Acquity CSHC18
Retention time: 5.327 min
Base peak: 593.1418
Precursor m/z: 593.1418
Precursor type: [M-H]-
Precursor intensity: 410518.6
m/z	relative intensity
106.4943	1
116.8999	1
132.0187	1
137.0127	1
151.0027	2
154.2694	1
163.0006	1
178.9982	1
197.0571	1
223.0737	1
227.0333	3
229.0452	4
241.0487	1
255.5695	1
276.4286	1
278.4587	1
279.9578	1
281.4795	1
282.923	1
284.0274	22
284.4181	1
284.6867	1
285.0567	27
286.0425	3
286.2825	1
287.3881	1
288.5815	1
288.9646	2
289.7505	1
290.6906	1
291.2877	1
297.0097	1
298.3972	1
300.5664	1
304.6615	1
310.1905	1
310.7323	1
316.1533	1
323.8732	1
324.3586	1
327.0448	1
352.6452	1
363.6497	1
592.6945	1
592.9081	1
593.1418	999
593.3473	1
593.49	2
593.6257	3
