Mass spectrum: Miltirone; LC-ESI-QFT; MS2; CE: 15,30,45 (NCE);  [2M+NH4]+
Name: Miltirone
Class: NA
Formula: C19H22O2
Exact mass: 282.1620
SMILES: CC(C)C1=CC2=C(C(=O)C1=O)C1=C(C=C2)C(C)(C)CCC1
InChI: InChI=1S/C19H22O2/c1-11(2)14-10-12-7-8-15-13(6-5-9-19(15,3)4)16(12)18(21)17(14)20/h7-8,10-11H,5-6,9H2,1-4H3
Instrument: QE Focus, Thermo Scientfic; UPLC I-Class, Waters
Instrument type: LC-ESI-QFT
Ms type: MS2
Ion mode: POSITIVE
Ionization: ESI
Collision energy: 15,30,45 (NCE)
Column name: Acquity CSHC18
Retention time: 5.079 min
Base peak: 582.3580
Precursor m/z: 582.3580
Precursor type: [2M+NH4]+
Precursor intensity: 86742980
m/z	relative intensity
50.1984	1
67.679	1
83.6195	1
104.3758	1
153.9859	2
181.0648	4
195.1166	9
199.0751	4
208.088	2
214.6367	2
216.0572	2
223.1117	105
225.0906	2
237.1644	14
240.114	36
241.1226	45
250.1346	2
254.1303	9
265.1585	62
268.146	10
283.1692	999
300.1397	2
300.1982	3
