Mass spectrum: N-Dodecanoyl-L-homoserine lactone; LC-ESI-ITFT; MS2; CE: 40;  [M+H]+
Name: N-Dodecanoyl-L-homoserine lactone
Class: NA
Formula: C16H29NO3
Exact mass: 283.21474
SMILES: CCCCCCCCCCCC(=O)N[C@H]1CCOC1=O
InChI: InChI=1S/C16H29NO3/c1-2-3-4-5-6-7-8-9-10-11-15(18)17-14-12-13-20-16(14)19/h14H,2-13H2,1H3,(H,17,18)/t14-/m0/s1
Instrument: Thermo Scientific Q-Exactive Focus
Instrument type: LC-ESI-ITFT
Ms type: MS2
Ion mode: POSITIVE
Ionization: ESI
Collision energy: 40
Column name: Acquity CSHC18
Retention time: 1.466 min
Base peak: 284.22202
Precursor m/z: 284.22202
Precursor type: [M+H]+
m/z	relative intensity
55.0548	147
56.05	247
57.0704	999
67.0547	281
71.086	187
74.0241	199
74.0605	280
81.0703	140
95.0858	200
102.0552	168
