Mass spectrum: PARAXANTHINE; LC-ESI-QTOF; MS2; CE: 40;  [M-H]-
Name: PARAXANTHINE
Class: NA
Formula: C7H8N4O2
Exact mass: 180.06473
SMILES: CN1C=NC2=C1C(=O)N(C)C(=O)N2
InChI: InChI=1S/C7H8N4O2/c1-10-3-8-5-4(10)6(12)11(2)7(13)9-5/h3H,1-2H3,(H,9,13)
Instrument: Agilent 6530Â Q-TOF LC/MS
Instrument type: LC-ESI-QTOF
Ms type: MS2
Ion mode: NEGATIVE
Ionization: ESI
Collision energy: 40
Column name: NA
Retention time: 0.200 min
Base peak: 179.06011
Precursor m/z: 179.06011
Precursor type: [M-H]-
Precursor intensity: 191
m/z	relative intensity
42.0041	293
58.9717	438
108.0211	999
