Mass spectrum: CYSTEINE; LC-ESI-QTOF; MS2; CE: 40;  [M-H]-
Name: CYSTEINE
Class: NA
Formula: C3H7NO2S
Exact mass: 121.01975
SMILES: N[C@@H](CS)C(O)=O
InChI: InChI=1S/C3H7NO2S/c4-2(1-7)3(5)6/h2,7H,1,4H2,(H,5,6)/t2-/m0/s1
Instrument: Agilent 6530Â Q-TOF LC/MS
Instrument type: LC-ESI-QTOF
Ms type: MS2
Ion mode: NEGATIVE
Ionization: ESI
Collision energy: 40
Column name: NA
Retention time: 0.200 min
Base peak: 120.01485
Precursor m/z: 120.01485
Precursor type: [M-H]-
Precursor intensity: 198
m/z	relative intensity
61.9838	864
61.9883	999
61.9928	777
