Mass spectrum: MEGLUTOL; LC-ESI-QTOF; MS2; CE: -10, -35, -60V;  [M-H]-
Name: MEGLUTOL
Class: NA
Formula: C6H10O5
Exact mass: 162.0528
SMILES: CC(CC(=O)O)(CC(=O)O)O
InChI: InChI=1S/C6H10O5/c1-6(11,2-4(7)8)3-5(9)10/h11H,2-3H2,1H3,(H,7,8)(H,9,10)
Instrument: TripleToF 5600; Sciex
Instrument type: LC-ESI-QTOF
Ms type: MS2
Ion mode: NEGATIVE
Ionization: ESI
Collision energy: -10, -35, -60V
Column name: Acquity CSHC18
Retention time: 9.691 min
Base peak: 161.0473
Precursor m/z: 161.0473
Precursor type: [M-H]-
Precursor intensity: 550399.4
m/z	relative intensity
87.0452	10
99.0473	360
100.0501	28
101.0253	178
117.0579	7
156.1068	18
157.0889	25
159.1052	77
160.1075	5
160.5489	19
161.0466	999
