Mass spectrum: Ginsenoside Re; LC-ESI-QFT; MS2; CE: 15,30,45 (NCE);  [M+Na]+
Name: Ginsenoside Re
Class: NA
Formula: C48H82O18
Exact mass: 946.5501
SMILES: CC1OC(OC2C(O)C(O)C(CO)OC2OC2CC3(C)C(CC(O)C4C(CCC34C)C(C)(CCC=C(C)C)OC3OC(CO)C(O)C(O)C3O)C3(C)CCC(O)C(C)(C)C23)C(O)C(O)C1O
InChI: InChI=1S/C48H82O18/c1-21(2)11-10-14-48(9,66-42-38(60)35(57)32(54)26(19-49)63-42)23-12-16-46(7)30(23)24(51)17-28-45(6)15-13-29(52)44(4,5)40(45)25(18-47(28,46)8)62-43-39(36(58)33(55)27(20-50)64-43)65-41-37(59)34(56)31(53)22(3)61-41/h11,22-43,49-60H,10,12-20H2,1-9H3
Instrument: QE Focus, Thermo Scientfic; UPLC I-Class, Waters
Instrument type: LC-ESI-QFT
Ms type: MS2
Ion mode: POSITIVE
Ionization: ESI
Collision energy: 15,30,45 (NCE)
Column name: Acquity CSHC18
Retention time: 2.011 min
Base peak: 969.5389
Precursor m/z: 969.5389
Precursor type: [M+Na]+
Precursor intensity: 11379710
m/z	relative intensity
203.0526	104
204.0535	1
218.1444	1
227.4445	1
230.771	1
259.2645	1
349.1105	76
463.3496	1
551.747	1
643.4174	6
655.2821	2
714.8889	1
789.4756	766
790.4748	21
969.5391	999
