Mass spectrum: 15-cyclohexyl pentanor Prostaglandin F2-alpha; ESI-TOF; MS2; CE: 6.0000000;  [M+H]+
Name: 15-cyclohexyl pentanor Prostaglandin F2-alpha
Class: NA
Formula: C21H34O5
Exact mass: 366.24062
SMILES: O[C@@H]1[C@H](C/C=C\CCCC(O)=O)[C@@H](/C=C/[C@@H](O)C2CCCCC2)[C@H](O)C1
InChI: InChI=1S/C21H34O5/c22-18(15-8-4-3-5-9-15)13-12-17-16(19(23)14-20(17)24)10-6-1-2-7-11-21(25)26/h1,6,12-13,15-20,22-24H,2-5,7-11,14H2,(H,25,26)/b6-1-,13-12+/t16-,17-,18-,19+,20-/m1/s1
Instrument: waters xevo g2 TOF
Instrument type: ESI-TOF
Ms type: MS2
Ion mode: POSITIVE
Ionization: ESI
Collision energy: 6.0000000
Column name: Acquity CSHC18
Retention time: 3.664 min
Base peak: 367.24862
Precursor m/z: 367.24862
Precursor type: [M+H]+
m/z	relative intensity
121.0613	13
131.0863	3
131.9779	5
135.1184	13
145.1018	7
163.1133	5
167.0717	43
175.1314	4
187.1172	11
193.12	6
205.1205	11
215.1807	19
231.1394	11
233.1556	12
235.1325	13
259.2054	28
269.1906	48
287.2004	78
288.1999	10
295.2055	134
296.2097	18
313.2167	999
314.2174	226
315.2275	26
329.2145	5
331.2277	672
332.231	133
349.2383	213
350.237	33
359.129	96
368.2092	27
