Mass spectrum: SORBITOL; LC-ESI-QTOF; MS2; CE: 10;  [M-H]-
Name: SORBITOL
Class: NA
Formula: C6H14O6
Exact mass: 182.07904
SMILES: OC[C@H](O)[C@@H](O)[C@H](O)[C@H](O)CO
InChI: InChI=1S/C6H14O6/c7-1-3(9)5(11)6(12)4(10)2-8/h3-12H,1-2H2/t3-,4+,5-,6-/m1/s1
Instrument: Agilent 6530Â Q-TOF LC/MS
Instrument type: LC-ESI-QTOF
Ms type: MS2
Ion mode: NEGATIVE
Ionization: ESI
Collision energy: 10
Column name: NA
Retention time: 0.200 min
Base peak: 181.07426
Precursor m/z: 181.07426
Precursor type: [M-H]-
Precursor intensity: 179
m/z	relative intensity
41.0037	128
43.0257	140
55.0224	144
57.0333	152
59.034	156
71.0309	202
73.0361	252
83.0122	321
85.0306	329
89.0373	405
101.0337	445
119.0281	820
163.0541	936
181.0939	999
