Mass spectrum: Ala-Ala-Ala; ESI-TOF; MS2; CE: 6.0000000;  [M+H]+
Name: Ala-Ala-Ala
Class: NA
Formula: C9H17N3O4
Exact mass: 231.12191
SMILES: CC(C(=O)NC(C)C(=O)NC(C)C(=O)O)N
InChI: InChI=1S/C9H17N3O4/c1-4(10)7(13)11-5(2)8(14)12-6(3)9(15)16/h4-6H,10H2,1-3H3,(H,11,13)(H,12,14)(H,15,16)
Instrument: waters xevo g2 TOF
Instrument type: ESI-TOF
Ms type: MS2
Ion mode: POSITIVE
Ionization: ESI
Collision energy: 6.0000000
Column name: Acquity CSHC18
Retention time: 0.532 min
Base peak: 232.12991
Precursor m/z: 232.12991
Precursor type: [M+H]+
m/z	relative intensity
90.0554	22
114.9712	9
115.0875	999
116.0907	64
131.9506	11
133.0976	12
141.1045	10
143.0824	867
144.086	67
161.0926	943
162.0956	72
169.0977	19
187.1078	11
214.1186	36
215.1026	9
232.1295	750
233.1325	84
234.1347	9
254.1114	307
255.115	27
270.0767	24
285.0411	12
286.0488	9
463.2506	115
464.2533	25
485.2318	70
486.2363	13
501.1996	21
516.1626	30
517.1651	15
747.2837	20
748.2842	7
769.2661	9
