Mass spectrum: cyanidin; LC-ESI-QTOF; MS2; CE: 15.00;  [M-O]+
Name: cyanidin
Class: NA
Formula: [C15H11O6]+
Exact mass: 287.0550
SMILES: C1=CC(=C(C=C1C2=[O+]C3=CC(=CC(=C3C=C2O)O)O)O)O
InChI: InChI=1S/C15H10O6/c16-8-4-11(18)9-6-13(20)15(21-14(9)5-8)7-1-2-10(17)12(19)3-7/h1-6H,(H4-,16,17,18,19,20)/p+1
Instrument: Bruker MicrOTOF-Q
Instrument type: LC-ESI-QTOF
Ms type: MS2
Ion mode: POSITIVE
Ionization: ESI
Collision energy: 15.00
Column name: Acquity CSHC18
Retention time: NA
Base peak: 271.0601
Precursor m/z: 271.0601
Precursor type: [M-O]+
m/z	relative intensity
271.0607	149
272.0636	999
