Mass spectrum: Dibenzoylmethane; LC-ESI-QTOF; MS2; CE: 15;  [M-H]-
Name: Dibenzoylmethane
Class: NA
Formula: C15H12O2
Exact mass: 224.0837
SMILES: C1=CC=C(C=C1)C(=O)CC(=O)C2=CC=CC=C2
InChI: InChI=1S/C15H12O2/c16-14(12-7-3-1-4-8-12)11-15(17)13-9-5-2-6-10-13/h1-10H,11H2
Instrument: Bruker MicrOTOF-Q
Instrument type: LC-ESI-QTOF
Ms type: MS2
Ion mode: NEGATIVE
Ionization: ESI
Collision energy: 15
Column name: Acquity CSHC18
Retention time: NA
Base peak: 223.0765
Precursor m/z: 223.0765
Precursor type: [M-H]-
m/z	relative intensity
46.6832	3
80.0064	3
101.0363	6
117.0257	3
121.0274	9
144.8685	2
145.0295	439
146.0329	34
177.0664	16
180.083	4
182.0729	6
195.0803	76
196.0835	6
204.0577	999
204.2611	5
204.5212	2
205.0653	302
206.0689	23
221.0597	3
223.0761	607
223.3305	5
224.0816	85
249.062	3
