Mass spectrum: Maltotriose; ESI-TOF; MS2; CE: 0.6458333;  [M+H]+
Name: Maltotriose
Class: NA
Formula: C18H32O16
Exact mass: 504.16903
SMILES: OCC1OC(OC2C(CO)OC(OC3C(CO)OC(O)C(O)C3O)C(O)C2O)C(O)C(O)C1O
InChI: InChI=1S/C18H32O16/c19-1-4-7(22)8(23)12(27)17(31-4)34-15-6(3-21)32-18(13(28)10(15)25)33-14-5(2-20)30-16(29)11(26)9(14)24/h4-29H,1-3H2
Instrument: waters xevo g2 TOF
Instrument type: ESI-TOF
Ms type: MS2
Ion mode: POSITIVE
Ionization: ESI
Collision energy: 0.6458333
Column name: Acquity CSHC18
Retention time: 0.559 min
Base peak: 505.17703
Precursor m/z: 505.17703
Precursor type: [M+H]+
m/z	relative intensity
85.0295	893
96.9619	3
97.0296	346
98.9626	206
101.9645	99
109.0297	3
127.0398	459
145.0503	513
146.0541	3
158.004	3
163.061	220
173.0014	3
184.9866	3
216.9797	66
233.9828	87
236.9395	3
236.9411	3
275.994	121
277.0002	129
289.0936	3
325.1131	527
326.1165	3
396.0346	3
439.0521	351
441.0528	43
487.1667	128
527.1601	999
528.1635	268
543.133	3
558.0888	154
559.0966	3
560.0994	3
618.1079	70
829.2815	3
991.3487	3
1009.3473	3
1010.3491	3
1031.3284	3
1062.2542	3
1063.2634	3
