Mass spectrum: (R,S)- Protosinomenine HCl; ESI-QTOF; MS2; CE: -10, -35, -60;  [M-H]-
Name: (R,S)- Protosinomenine HCl
Class: Benzylisoquinoline alkaloid
Formula: C19H23NO4
Exact mass: 329.1627
SMILES: CN1CCC2=CC(=C(C=C2C1CC3=CC(=C(C=C3)OC)O)OC)O
InChI: InChI=1S/C19H23NO4/c1-20-7-6-13-10-17(22)19(24-3)11-14(13)15(20)8-12-4-5-18(23-2)16(21)9-12/h4-5,9-11,15,21-22H,6-8H2,1-3H3
Instrument: AB Sciex TripleToF 5500
Instrument type: ESI-QTOF
Ms type: MS2
Ion mode: NEGATIVE
Ionization: ESI
Collision energy: -10, -35, -60
Column name: Acquity CSHC18
Retention time: 4.427 min
Base peak: 328.1558
Precursor m/z: 328.1558
Precursor type: [M-H]-
Precursor intensity: 4462.25
m/z	relative intensity
122.0349	434
328.1577	999
329.166	148
