Mass spectrum: (+)-lariciresinol; LC-ESI-QTOF; MS2; CE: 35.00;  [M+Na]+
Name: (+)-lariciresinol
Class: NA
Formula: C20H24O6
Exact mass: 360.1573
SMILES: COC1=C(C=CC(=C1)CC2COC(C2CO)C3=CC(=C(C=C3)O)OC)O
InChI: InChI=1S/C20H24O6/c1-24-18-8-12(3-5-16(18)22)7-14-11-26-20(15(14)10-21)13-4-6-17(23)19(9-13)25-2/h3-6,8-9,14-15,20-23H,7,10-11H2,1-2H3
Instrument: Bruker MicrOTOF-Q
Instrument type: LC-ESI-QTOF
Ms type: MS2
Ion mode: POSITIVE
Ionization: ESI
Collision energy: 35.00
Column name: Acquity CSHC18
Retention time: NA
Base peak: 383.1457
Precursor m/z: 383.1457
Precursor type: [M+Na]+
m/z	relative intensity
115.0581	104
128.0593	87
129.0699	149
137.0603	555
144.0599	96
145.0711	191
147.985	232
157.0627	123
158.0776	126
160.9902	999
161.9978	433
170.0706	130
173.0553	110
174.066	237
175.0084	157
176.0834	208
179.0006	313
185.9964	153
189.0909	216
192.0059	109
193.0208	158
195.0364	99
198.0003	156
199.0056	779
200.0129	162
201.0183	108
201.0912	167
216.0127	159
217.0231	505
218.0246	202
219.1074	89
220.0373	78
230.0164	110
233.0543	111
235.0267	214
236.0361	191
297.0422	174
315.0575	97
335.07	112
339.06	75
342.0677	91
353.066	261
354.0695	154
