Mass spectrum: L-Phenylalanine; LC-ESI-ITFT; MS2; CE: 40;  [M+H]+
Name: L-Phenylalanine
Class: Organic acids and derivatives; Carboxylic acids and derivatives; Amino acids, peptides, and analogues
Formula: C9H11NO2
Exact mass: 165.07898
SMILES: N[C@@H](CC1=CC=CC=C1)C(O)=O
InChI: InChI=1S/C9H11NO2/c10-8(9(11)12)6-7-4-2-1-3-5-7/h1-5,8H,6,10H2,(H,11,12)/t8-/m0/s1
Instrument: Thermo Scientific Q-Exactive Focus
Instrument type: LC-ESI-ITFT
Ms type: MS2
Ion mode: POSITIVE
Ionization: ESI
Collision energy: 40
Column name: Acquity CSHC18
Retention time: 1.463 min
Base peak: 166.08626
Precursor m/z: 166.08626
Precursor type: [M+H]+
m/z	relative intensity
51.0236	74
53.0392	299
77.039	105
79.0547	116
91.0546	344
95.0495	602
102.0467	57
103.0545	999
105.045	135
120.0809	128
