Mass spectrum: Adenosine 5'-diphosphate; LC-ESI-QTOF; MS2; CE: -10, -35, -60V;  [M-H]-
Name: Adenosine 5'-diphosphate
Class: NA
Formula: C10H15N5O10P2
Exact mass: 427.0294
SMILES: C1=NC(=C2C(=N1)N(C=N2)C3C(C(C(O3)COP(=O)(O)OP(=O)(O)O)O)O)N
InChI: InChI=1S/C10H15N5O10P2/c11-8-5-9(13-2-12-8)15(3-14-5)10-7(17)6(16)4(24-10)1-23-27(21,22)25-26(18,19)20/h2-4,6-7,10,16-17H,1H2,(H,21,22)(H2,11,12,13)(H2,18,19,20)
Instrument: TripleToF 5600; Sciex
Instrument type: LC-ESI-QTOF
Ms type: MS2
Ion mode: NEGATIVE
Ionization: ESI
Collision energy: -10, -35, -60V
Column name: Acquity CSHC18
Retention time: 12.728 min
Base peak: 426.0210
Precursor m/z: 426.0210
Precursor type: [M-H]-
Precursor intensity: 222741.6
m/z	relative intensity
78.9594	999
96.9703	18
134.0474	257
158.9261	565
272.9606	86
290.9742	11
328.0476	169
346.0533	23
408.0139	133
426.0278	432
