Mass spectrum: L-Dopa; LC-ESI-ITFT; MS2; CE: 40;  [M-H]-
Name: L-Dopa
Class: Organic acids and derivatives; Carboxylic acids and derivatives; Amino acids, peptides, and analogues
Formula: C9H11NO4
Exact mass: 197.06881
SMILES: N[C@@H](CC1=CC(O)=C(O)C=C1)C(O)=O
InChI: InChI=1S/C9H11NO4/c10-6(9(13)14)3-5-1-2-7(11)8(12)4-5/h1-2,4,6,11-12H,3,10H2,(H,13,14)/t6-/m0/s1
Instrument: Thermo Scientific Q-Exactive Focus
Instrument type: LC-ESI-ITFT
Ms type: MS2
Ion mode: NEGATIVE
Ionization: ESI
Collision energy: 40
Column name: Acquity CSHC18
Retention time: 1.475 min
Base peak: 196.06152
Precursor m/z: 196.06152
Precursor type: [M-H]-
m/z	relative intensity
72.0078	149
74.0235	111
89.0384	98
93.0333	177
107.0489	101
108.0204	458
109.0283	999
122.0361	169
134.0362	613
135.0439	415
