Mass spectrum: N-METHYLTRYPTAMINE; LC-ESI-QTOF; MS2; CE: 40;  [M+H]+
Name: N-METHYLTRYPTAMINE
Class: NA
Formula: C11H14N2
Exact mass: 174.11570
SMILES: CNCCC1=CNC2=CC=CC=C12
InChI: InChI=1S/C11H14N2/c1-12-7-6-9-8-13-11-5-3-2-4-10(9)11/h2-5,8,12-13H,6-7H2,1H3
Instrument: Agilent 6530Â Q-TOF LC/MS
Instrument type: LC-ESI-QTOF
Ms type: MS2
Ion mode: POSITIVE
Ionization: ESI
Collision energy: 40
Column name: NA
Retention time: 0.200 min
Base peak: 175.12057
Precursor m/z: 175.12057
Precursor type: [M+H]+
Precursor intensity: 79.5
m/z	relative intensity
42.0376	24
44.0699	25
50.0162	25
51.0387	25
52.0261	26
63.0305	27
65.0576	27
66.039	27
67.0464	27
74.016	27
75.0277	29
77.0668	30
78.0459	34
79.0567	36
86.0111	37
87.0132	38
89.0585	38
89.2676	47
90.0707	51
91.0989	52
91.3261	54
91.4154	61
92.0477	69
93.0649	72
101.0525	73
102.0574	76
103.0702	78
104.0646	79
105.0785	88
115.2412	99
115.5707	102
115.6805	107
116.0826	125
116.5461	128
117.1528	144
117.4678	163
117.8677	216
118.0762	235
118.1884	299
119.3031	300
126.0533	314
127.0882	331
128.0818	401
129.0729	441
130.0775	509
131.073	562
132.0919	564
140.0431	654
142.092	741
143.1342	755
144.1076	999
