Mass spectrum: azelaic acid; LC-ESI-QTOF; MS2; CE: -10, -35, -60V;  [M-H]-
Name: azelaic acid
Class: NA
Formula: C9H16O4
Exact mass: 188.1049
SMILES: C(CCCC(=O)O)CCCC(=O)O
InChI: InChI=1S/C9H16O4/c10-8(11)6-4-2-1-3-5-7-9(12)13/h1-7H2,(H,10,11)(H,12,13)
Instrument: TripleToF 5600; Sciex
Instrument type: LC-ESI-QTOF
Ms type: MS2
Ion mode: NEGATIVE
Ionization: ESI
Collision energy: -10, -35, -60V
Column name: Acquity CSHC18
Retention time: 11.498 min
Base peak: 187.0989
Precursor m/z: 187.0989
Precursor type: [M-H]-
Precursor intensity: 881400.4
m/z	relative intensity
97.0675	63
121.0295	2
123.0803	36
124.7065	6
125.0977	361
126.1023	62
143.078	7
143.1067	26
168.5556	2
169.0857	185
170.0894	19
186.5314	20
187.0986	999
