Mass spectrum: Rhapontin; LC-ESI-QTOF; MS2; CE: 23.93;  [M-H]-
Name: Rhapontin
Class: NA
Formula: C21H24O9
Exact mass: 420.1420
SMILES: COC1=C(C=C(C=C1)C=CC2=CC(=CC(=C2)OC3C(C(C(C(O3)CO)O)O)O)O)O
InChI: InChI=1S/C21H24O9/c1-28-16-5-4-11(8-15(16)24)2-3-12-6-13(23)9-14(7-12)29-21-20(27)19(26)18(25)17(10-22)30-21/h2-9,17-27H,10H2,1H3
Instrument: Bruker MicrOTOF-Q
Instrument type: LC-ESI-QTOF
Ms type: MS2
Ion mode: NEGATIVE
Ionization: ESI
Collision energy: 23.93
Column name: Acquity CSHC18
Retention time: NA
Base peak: 419.1348
Precursor m/z: 419.1348
Precursor type: [M-H]-
m/z	relative intensity
172.0529	55
186.0625	28
195.0508	18
197.0612	49
199.0412	88
200.0568	26
213.0577	133
214.0635	98
215.0638	42
224.0465	721
225.0525	254
226.0616	40
240.0376	21
241.5352	999
243.0613	420
244.058	67
257.2627	955
259.0852	149
