Mass spectrum: theophylline; LC-ESI-ITFT; MS2; CE: 0.3;  [M+H]+
Name: theophylline
Class: alkaloids
Formula: C7H8N4O2
Exact mass: 180.0647
SMILES: CN1C2=C(C(=O)N(C1=O)C)NC=N2
InChI: InChI=1S/C7H8N4O2/c1-10-5-4(8-3-9-5)6(12)11(2)7(10)13/h3H,1-2H3,(H,8,9)
Instrument: LTQ-Orbitrap XL hybrid mass spectrometer (Thermo Scientific)
Instrument type: LC-ESI-ITFT
Ms type: MS2
Ion mode: POSITIVE
Ionization: ESI
Collision energy: 0.3
Column name: Acquity CSHC18
Retention time: 5.309 min
Base peak: 181.0722
Precursor m/z: 181.0722
Precursor type: [M+H]+
Precursor intensity: 80466930
m/z	relative intensity
55.412	6
57.6555	5
58.3375	6
66.2155	6
71.8166	10
71.8183	11
71.8193	5
71.8207	10
85.0208	5
88.063	4
96.0556	11
98.7538	4
98.9027	4
101.304	5
124.0507	415
129.5987	4
137.0824	15
181.0597	6
181.0644	6
181.0668	6
181.0726	999
181.0776	5
