Mass spectrum: Ginkgolide J; LC-ESI-QFT; MS2; CE: 15,30,45 (NCE);  [2M-H]-
Name: Ginkgolide J
Class: NA
Formula: C20H24O10
Exact mass: 424.1369
SMILES: CC1C(=O)OC2CC34C5OC(=O)C3(OC3OC(=O)C(O)C43C(C5O)C(C)(C)C)C12O
InChI: InChI=1S/C20H24O10/c1-6-12(23)27-7-5-17-11-8(21)9(16(2,3)4)18(17)10(22)13(24)29-15(18)30-20(17,14(25)28-11)19(6,7)26/h6-11,15,21-22,26H,5H2,1-4H3
Instrument: QE Focus, Thermo Scientfic; UPLC I-Class, Waters
Instrument type: LC-ESI-QFT
Ms type: MS2
Ion mode: NEGATIVE
Ionization: ESI
Collision energy: 15,30,45 (NCE)
Column name: Acquity CSHC18
Retention time: 1.516 min
Base peak: 847.2669
Precursor m/z: 847.2669
Precursor type: [2M-H]-
Precursor intensity: 59026640
m/z	relative intensity
72.9917	840
121.0281	472
147.0442	356
169.0862	383
204.0789	115
233.1183	723
305.1396	159
349.093	999
