Mass spectrum: N6-(DELTA2-ISOPENTENYL)-ADENINE; LC-ESI-QTOF; MS2; CE: 10;  [M+H]+
Name: N6-(DELTA2-ISOPENTENYL)-ADENINE
Class: NA
Formula: C10H13N5
Exact mass: 203.11710
SMILES: CC(=CCNC1=NC=NC2=C1NC=N2)C
InChI: InChI=1S/C10H13N5/c1-7(2)3-4-11-9-8-10(13-5-12-8)15-6-14-9/h3,5-6H,4H2,1-2H3,(H2,11,12,13,14,15)
Instrument: Agilent 6530Â Q-TOF LC/MS
Instrument type: LC-ESI-QTOF
Ms type: MS2
Ion mode: POSITIVE
Ionization: ESI
Collision energy: 10
Column name: NA
Retention time: 0.200 min
Base peak: 204.12645
Precursor m/z: 204.12645
Precursor type: [M+H]+
Precursor intensity: 62.5
m/z	relative intensity
41.031	41
41.0347	77
41.0384	82
41.042	66
41.0457	50
41.0494	40
41.053	34
41.0567	24
63.058	24
63.0626	25
63.0671	21
69.056	22
69.0608	99
69.0655	150
69.0703	144
69.075	117
69.0798	90
69.0846	70
69.0893	53
69.0941	39
69.0989	33
69.1036	27
103.0858	37
103.0916	49
103.0974	46
103.1032	37
103.109	27
103.1149	22
136.0386	74
136.0453	415
136.0519	845
136.0586	999
136.0653	891
136.072	717
136.0787	545
136.0854	405
136.092	308
136.0987	242
136.1054	186
136.1121	137
136.1188	100
136.1255	71
136.1322	59
136.1388	42
136.1455	31
148.0438	45
148.0508	116
148.0578	159
148.0648	158
148.0717	134
148.0787	103
148.0857	80
148.0927	62
148.0996	45
148.1066	33
148.1136	25
203.1777	22
203.1859	25
203.1941	22
204.0937	49
204.1019	141
204.1101	295
204.1183	404
204.1265	405
204.1346	334
204.1428	265
204.151	203
204.1592	158
204.1674	129
204.1756	100
204.1838	78
204.192	61
204.2002	44
204.2083	30
204.2165	24
