Mass spectrum: D-Galacturonic acid; ESI-TOF; MS2; CE: 0.6458333;  [M+H]+
Name: D-Galacturonic acid
Class: NA
Formula: C6H10O7
Exact mass: 194.04265
SMILES: O=C[C@H](O)[C@@H](O)[C@@H](O)[C@H](O)C(=O)O
InChI: InChI=1S/C6H10O7/c7-1-2(8)3(9)4(10)5(11)6(12)13/h1-5,8-11H,(H,12,13)/t2-,3+,4+,5-/m0/s1
Instrument: waters xevo g2 TOF
Instrument type: ESI-TOF
Ms type: MS2
Ion mode: POSITIVE
Ionization: ESI
Collision energy: 0.6458333
Column name: Acquity CSHC18
Retention time: 0.544 min
Base peak: 195.05065
Precursor m/z: 195.05065
Precursor type: [M+H]+
m/z	relative intensity
97.0288	342
113.9404	727
126.9478	282
141.0182	147
172.9758	451
174.9686	445
185.9621	336
196.0128	13
199.0209	103
205.0181	124
205.5204	13
214.0232	13
217.0313	999
218.066	13
232.9972	191
247.9627	13
289.9722	451
293.031	13
302.0398	13
307.9826	170
308.988	13
311.0433	13
411.0734	105
427.0368	13
442.0045	13
443.008	13
