Mass spectrum: Oxaloacetic acid; LC-ESI-QTOF; MS2; CE: 10;  [M-H]-
Name: Oxaloacetic acid
Class: NA
Formula: C4H4O5
Exact mass: 132.00587
SMILES: C(C(=O)C(=O)O)C(=O)O
InChI: InChI=1S/C4H4O5/c5-2(4(8)9)1-3(6)7/h1H2,(H,6,7)(H,8,9)
Instrument: impact II
Instrument type: LC-ESI-QTOF
Ms type: MS2
Ion mode: NEGATIVE
Ionization: ESI
Collision energy: 10
Column name: Acquity CSHC18
Retention time: 1.803 min
Base peak: 130.99850
Precursor m/z: 130.99850
Precursor type: [M-H]-
m/z	relative intensity
58.0062	7
59.014	22
87.0088	999
87.0202	39
87.0454	6
87.0742	7
87.0838	10
88.0119	32
130.9319	8
130.9985	42
131.0171	9
131.0347	5
131.0717	20
