Mass spectrum: GSH; LC-ESI-QTOF; MS2; CE: 15 / 50;  [M-H]-
Name: GSH
Class: NA
Formula: C10H17N3O6S
Exact mass: 307.0838
SMILES: C(CC(=O)NC(CS)C(=O)NCC(=O)O)C(C(=O)O)N
InChI: InChI=1S/C10H17N3O6S/c11-5(10(18)19)1-2-7(14)13-6(4-20)9(17)12-3-8(15)16/h5-6,20H,1-4,11H2,(H,12,17)(H,13,14)(H,15,16)(H,18,19)
Instrument: impact II
Instrument type: LC-ESI-QTOF
Ms type: MS2
Ion mode: NEGATIVE
Ionization: ESI
Collision energy: 15 / 50
Column name: Acquity CSHC18
Retention time: 0.684 min
Base peak: 306.0763
Precursor m/z: 306.0763
Precursor type: [M-H]-
m/z	relative intensity
99.0566	102
128.0353	107
143.0461	110
146.0458	187
160.0072	225
177.0336	233
179.0461	246
210.0884	288
254.0781	338
272.0888	495
306.0765	999
