Mass spectrum: 4-P-Coumaroylquinic acid; LC-ESI-QTOF; MS2; CE: Ramped;  [M+H]+
Name: 4-P-Coumaroylquinic acid
Class: Phenolic-quinate conjugate
Formula: C16H18O8
Exact mass: 338.1002
SMILES: C1[C@H](C([C@@H](CC1(C(=O)O)O)O)OC(=O)/C=C/C2=CC=C(C=C2)O)O
InChI: InChI=1S/C16H18O8/c17-10-4-1-9(2-5-10)3-6-13(20)24-14-11(18)7-16(23,15(21)22)8-12(14)19/h1-6,11-12,14,17-19,23H,7-8H2,(H,21,22)/b6-3+/t11-,12-,14?,16?/m1/s1
Instrument: Impact II qTOF
Instrument type: LC-ESI-QTOF
Ms type: MS2
Ion mode: POSITIVE
Ionization: ESI
Collision energy: Ramped
Column name: Acquity CSH C18 column (particle size 1.7 μm, column length 2.1 × 50 mm) (Waters)
Retention time: 2.3 min
Base peak: 339.1068
Precursor m/z: 339.1068
Precursor type: [M+H]+
m/z	relative intensity
119.05	719
147.044	999
155.117	279
339.1068	19
