Mass spectrum: (22R,25S)-22,26-Epimino-5alpha-cholestan-3beta-16beta,diol; APCI-ITFT; MS2; CE: 35 CID;  [M+H]+
Name: (22R,25S)-22,26-Epimino-5alpha-cholestan-3beta-16beta,diol
Class: NA
Formula: C27H47NO2
Exact mass: 417.36068
SMILES: C[C@H](CN1)CC[C@H]1[C@@H](C)[C@@]2([H])[C@@H](O)C[C@@]3([H])[C@]4([H])CC[C@@]5([H])C[C@@H](O)CC[C@]5(C)[C@@]4([H])CC[C@]23C
InChI: InChI=1S/C27H47NO2/c1-16-5-8-23(28-15-16)17(2)25-24(30)14-22-20-7-6-18-13-19(29)9-11-26(18,3)21(20)10-12-27(22,25)4/h16-25,28-30H,5-15H2,1-4H3/t16-,17+,18-,19-,20+,21-,22-,23-,24-,25-,26-,27-/m0/s1
Instrument: Orbitrap Elite
Instrument type: APCI-ITFT
Ms type: MS2
Ion mode: POSITIVE
Ionization: APCI
Collision energy: 35 CID
Column name: Acquity CSHC18
Retention time: 0.102 min
Base peak: 418.36730
Precursor m/z: 418.36730
Precursor type: [M+H]+
Precursor intensity: 3381987000
m/z	relative intensity
126.128	7
133.1025	2
135.1176	2
145.1021	2
147.1176	3
149.1326	1
159.1182	3
161.1332	14
173.1332	2
175.1479	2
185.134	1
187.1482	3
199.1488	1
201.164	2
213.1652	1
215.1806	5
241.195	7
255.2123	34
257.226	20
259.2065	3
269.2257	1
271.2051	1
272.2088	1
273.2218	105
289.2538	2
365.3168	2
382.3516	6
383.3309	5
399.3443	20
400.3563	999
401.3618	17
