Mass spectrum: Oleamide; ESI-TOF; MS2; CE: 6.0000000;  [M+H]+
Name: Oleamide
Class: NA
Formula: C18H35NO
Exact mass: 281.27186
SMILES: O=C(N)CCCCCCC\C=C/CCCCCCCC
InChI: InChI=1S/C18H35NO/c1-2-3-4-5-6-7-8-9-10-11-12-13-14-15-16-17-18(19)20/h9-10H,2-8,11-17H2,1H3,(H2,19,20)/b10-9-
Instrument: waters xevo g2 TOF
Instrument type: ESI-TOF
Ms type: MS2
Ion mode: POSITIVE
Ionization: ESI
Collision energy: 6.0000000
Column name: Acquity CSHC18
Retention time: 6.848 min
Base peak: 282.27986
Precursor m/z: 282.27986
Precursor type: [M+H]+
m/z	relative intensity
81.0713	1
83.0865	1
95.0868	1
97.1022	1
109.102	1
111.1183	2
114.0922	3
121.102	2
123.1179	1
125.0975	1
128.1083	4
135.118	5
137.1335	1
139.1132	1
142.124	4
149.1337	5
151.1489	1
153.1285	2
156.1394	5
160.618	22
161.1199	4
163.1493	4
165.1651	1
167.144	1
169.6234	7
170.1552	6
176.6303	2
177.1644	3
181.1452	3
184.1707	6
191.1804	2
195.1751	1
197.1441	1
198.1861	7
209.1914	1
212.2017	7
226.2172	7
227.2214	1
240.2335	3
247.2434	48
248.2467	9
265.2538	95
266.2571	19
267.2617	2
282.2802	999
283.2836	215
