Mass spectrum: alpha-Tocopherol; LC-ESI-ITFT; MS2; CE: 100;  [M+H]+
Name: alpha-Tocopherol
Class: Lipids and lipid-like molecules; Prenol lipids; Quinone and hydroquinone lipids
Formula: C29H50O2
Exact mass: 430.38108
SMILES: CC(C)CCC[C@@H](C)CCC[C@@H](C)CCC[C@]1(C)CCC2=C(C)C(O)=C(C)C(C)=C2O1
InChI: InChI=1S/C29H50O2/c1-20(2)12-9-13-21(3)14-10-15-22(4)16-11-18-29(8)19-17-26-25(7)27(30)23(5)24(6)28(26)31-29/h20-22,30H,9-19H2,1-8H3/t21-,22-,29-/m1/s1
Instrument: Thermo Scientific Q-Exactive Focus
Instrument type: LC-ESI-ITFT
Ms type: MS2
Ion mode: POSITIVE
Ionization: ESI
Collision energy: 100
Column name: Acquity CSHC18
Retention time: 2.574 min
Base peak: 431.38837
Precursor m/z: 431.38837
Precursor type: [M+H]+
m/z	relative intensity
53.0392	273
55.0548	624
67.0547	661
79.0546	562
91.0546	999
92.0579	242
95.0494	417
107.0494	832
121.0649	672
122.0727	312
