Mass spectrum: naringenin; LC-ESI-ITFT; MS2; CE: 0.3;  [M-H]-
Name: naringenin
Class: flavanones
Formula: C15H12O5
Exact mass: 272.0685
SMILES: C1C(OC2=CC(=CC(=C2C1=O)O)O)C3=CC=C(C=C3)O
InChI: InChI=1S/C15H12O5/c16-9-3-1-8(2-4-9)13-7-12(19)15-11(18)5-10(17)6-14(15)20-13/h1-6,13,16-18H,7H2
Instrument: LTQ-Orbitrap XL hybrid mass spectrometer (Thermo Scientific)
Instrument type: LC-ESI-ITFT
Ms type: MS2
Ion mode: NEGATIVE
Ionization: ESI
Collision energy: 0.3
Column name: Acquity CSHC18
Retention time: 9.654 min
Base peak: 271.0611
Precursor m/z: 271.0611
Precursor type: [M-H]-
Precursor intensity: 110428800
m/z	relative intensity
60.7213	14
60.7785	13
61.0372	12
61.9971	12
62.8828	12
63.4633	11
63.6401	13
64.0762	13
64.2842	12
66.259	13
66.5284	11
66.5518	16
71.6784	14
71.807	22
76.846	12
82.443	18
93.0353	85
96.3415	12
102.8596	13
107.0145	219
119.0507	139
125.025	101
132.5145	10
142.0116	10
145.0301	13
147.9289	10
150.1996	23
150.4673	26
150.5746	17
151.0025	427
151.4359	21
151.537	13
151.5438	33
151.6802	10
151.8148	40
152.0864	19
155.7608	9
165.0196	194
167.7576	13
168.6541	11
174.4743	10
174.6438	9
177.0196	999
194.4895	11
194.5001	13
194.5117	13
194.5242	12
194.5294	12
194.5357	9
196.1159	45
196.1957	20
199.5777	11
200.1809	10
227.0714	55
253.0505	13
271.0607	23
