Mass spectrum: 5-METHYLCYTOSINE; LC-ESI-QTOF; MS2; CE: 10;  [M+H]+
Name: 5-METHYLCYTOSINE
Class: NA
Formula: C5H7N3O
Exact mass: 125.0589
SMILES: CC1=C(N)NC(=O)N=C1
InChI: InChI=1S/C5H7N3O/c1-3-2-7-5(9)8-4(3)6/h2H,1H3,(H3,6,7,8,9)
Instrument: Agilent 6530Â Q-TOF LC/MS
Instrument type: LC-ESI-QTOF
Ms type: MS2
Ion mode: POSITIVE
Ionization: ESI
Collision energy: 10
Column name: NA
Retention time: 0.200 min
Base peak: 126.06732
Precursor m/z: 126.06732
Precursor type: [M+H]+
Precursor intensity: 107.5
m/z	relative intensity
40.9705	30
54.0338	46
56.0509	46
81.0449	53
82.0288	62
83.0589	84
84.9596	132
108.0555	268
109.0389	278
126.0655	999
