Mass spectrum: Tetrachlorobisphenol A; LC-ESI-ITFT; MS2; CE: 100;  [M-H]-
Name: Tetrachlorobisphenol A
Class: NA
Formula: C15H12Cl4O2
Exact mass: 363.95914
SMILES: CC(C)(C1=CC(=C(C(=C1)Cl)O)Cl)C2=CC(=C(C(=C2)Cl)O)Cl
InChI: InChI=1S/C15H12Cl4O2/c1-15(2,7-3-9(16)13(20)10(17)4-7)8-5-11(18)14(21)12(19)6-8/h3-6,20-21H,1-2H3
Instrument: Thermo Scientific Q-Exactive Focus
Instrument type: LC-ESI-ITFT
Ms type: MS2
Ion mode: NEGATIVE
Ionization: ESI
Collision energy: 100
Column name: Acquity CSHC18
Retention time: 2.581 min
Base peak: 362.95187
Precursor m/z: 362.95187
Precursor type: [M-H]-
m/z	relative intensity
61.0072	204
77.002	244
89.002	999
92.5134	274
133.0071	571
207.4211	120
242.5896	117
274.4321	122
297.4191	112
341.2239	134
