Mass spectrum: C20 Ceramide (d18:1/20:0); ESI-TOF; MS2; CE: 6.0000000;  [M+H]+
Name: C20 Ceramide (d18:1/20:0)
Class: NA
Formula: C38H75NO3
Exact mass: 593.57470
SMILES: [H]OC([H])([H])C([H])(N([H])C(=O)C([H])([H])C([H])([H])C([H])([H])C([H])([H])C([H])([H])C([H])([H])C([H])([H])C([H])([H])C([H])([H])C([H])([H])C([H])([H])C([H])([H])C([H])([H])C([H])([H])C([H])([H])C([H])([H])C([H])([H])C([H])([H])C([H])([H])[H])C([H])(O[H])C([H])=C([H])C([H])([H])C([H])([H])C([H])([H])C([H])([H])C([H])([H])C([H])([H])C([H])([H])C([H])([H])C([H])([H])C([H])([H])C([H])([H])C([H])([H])C([H])([H])[H]
InChI: InChI=1S/C38H75NO3/c1-3-5-7-9-11-13-15-17-18-19-20-22-24-26-28-30-32-34-38(42)39-36(35-40)37(41)33-31-29-27-25-23-21-16-14-12-10-8-6-4-2/h31,33,36-37,40-41H,3-30,32,34-35H2,1-2H3,(H,39,42)
Instrument: waters xevo g2 TOF
Instrument type: ESI-TOF
Ms type: MS2
Ion mode: POSITIVE
Ionization: ESI
Collision energy: 6.0000000
Column name: Acquity CSHC18
Retention time: 11.698 min
Base peak: 594.58270
Precursor m/z: 594.58270
Precursor type: [M+H]+
m/z	relative intensity
99.9696	68
99.97	28
101.9649	19
292.7583	19
298.7584	17
316.7687	137
317.2711	72
558.5613	6
576.5725	999
577.5758	190
578.5791	86
594.5829	494
595.5853	217
596.5892	35
613.5568	71
614.0576	107
614.5588	48
616.5652	251
617.5689	156
618.5713	25
618.5802	16
621.5389	16
678.5351	148
679.5415	26
682.9304	19
694.508	39
696.5098	21
910.3452	45
910.8453	60
911.3484	40
911.8494	14
1188.1515	146
1189.1601	123
1190.1633	54
