Mass spectrum: 3,6-tigloyloxy-7-hydroxytropane; LC-ESI-QTOF; MS2; CE: 35eV;  [M+H]+
Name: 3,6-tigloyloxy-7-hydroxytropane
Class: Tropane_alkaloid
Formula: C18H27NO5
Exact mass: 337.1889
SMILES: CC(=C(C)C(=O)OC1CC2C(C(C(C1)N2C)OC(C(C)=C(C)[H])=O)O)[H]
InChI: InChI=1S/C18H27NO5/c1-6-10(3)17(21)23-12-8-13-15(20)16(14(9-12)19(13)5)24-18(22)11(4)7-2/h6-7,12-16,20H,8-9H2,1-5H3
Instrument: maXis impact HD, Bruker; Dionex 3000, Thermo Scientific
Instrument type: LC-ESI-QTOF
Ms type: MS2
Ion mode: POSITIVE
Ionization: ESI
Collision energy: 35eV
Column name: Acquity CSHC18
Retention time: 10.639 min
Base peak: 338.1955
Precursor m/z: 338.1955
Precursor type: [M+H]+
Precursor intensity: 51690.38
m/z	relative intensity
94.0651	31
96.0806	37
108.0807	41
110.06	45
120.0805	45
138.0905	45
139.0942	60
156.1012	65
220.1326	72
238.1425	94
239.1467	266
338.196	999
