Mass spectrum: p-Aminobenzoic acid; ESI-TOF; MS2; CE: 0.6458333;  [M+H]+
Name: p-Aminobenzoic acid
Class: NA
Formula: C7H7NO2
Exact mass: 137.04768
SMILES: NC1=CC=C(C=C1)C(O)=O
InChI: InChI=1S/C7H7NO2/c8-6-3-1-5(2-4-6)7(9)10/h1-4H,8H2,(H,9,10)
Instrument: waters xevo g2 TOF
Instrument type: ESI-TOF
Ms type: MS2
Ion mode: POSITIVE
Ionization: ESI
Collision energy: 0.6458333
Column name: Acquity CSHC18
Retention time: 1.603 min
Base peak: 138.05568
Precursor m/z: 138.05568
Precursor type: [M+H]+
m/z	relative intensity
65.0396	135
77.0395	295
92.0501	262
93.0572	489
94.0658	602
101.9399	31
101.94	38
101.9405	77
120.045	994
121.0479	105
135.9931	1
135.9934	1
138.0555	999
138.9901	1
139.0587	262
140.06	1
140.0607	1
176.0026	112
181.0765	134
183.0915	119
184.0988	101
186.9575	1
186.9577	1
227.082	1
228.0878	1
229.0967	1
229.0968	1
250.9556	3
277.9979	1
318.1261	17
