Mass spectrum: D-Tryptophan; LC-ESI-ITFT; MS2; CE: 30;  [M+H]+
Name: D-Tryptophan
Class: Organoheterocyclic compounds; Indoles and derivatives; Indolyl carboxylic acids and derivatives
Formula: C11H12N2O2
Exact mass: 204.08988
SMILES: N[C@H](CC1=CNC2=C1C=CC=C2)C(O)=O
InChI: InChI=1S/C11H12N2O2/c12-9(11(14)15)5-7-6-13-10-4-2-1-3-8(7)10/h1-4,6,9,13H,5,12H2,(H,14,15)/t9-/m1/s1
Instrument: Thermo Scientific Q-Exactive Focus
Instrument type: LC-ESI-ITFT
Ms type: MS2
Ion mode: POSITIVE
Ionization: ESI
Collision energy: 30
Column name: Acquity CSHC18
Retention time: 0.917 min
Base peak: 205.09715
Precursor m/z: 205.09715
Precursor type: [M+H]+
m/z	relative intensity
91.0546	109
115.0544	189
117.0575	96
118.0654	999
130.0652	80
132.0808	153
142.0651	87
143.0729	217
144.0807	148
146.06	240
