Mass spectrum: (-)-Sparteine; LC-ESI-ITFT; MS2; CE: 20;  [M+H]+
Name: (-)-Sparteine
Class: NA
Formula: C15H26N2
Exact mass: 234.20960
SMILES: C1CCN2C[C@H]3C[C@@H]([C@H]2C1)CN4[C@H]3CCCC4
InChI: InChI=1S/C15H26N2/c1-3-7-16-11-13-9-12(14(16)5-1)10-17-8-4-2-6-15(13)17/h12-15H,1-11H2/t12-,13-,14-,15+/m1/s1
Instrument: Thermo Scientific Q-Exactive Focus
Instrument type: LC-ESI-ITFT
Ms type: MS2
Ion mode: POSITIVE
Ionization: ESI
Collision energy: 20
Column name: Acquity CSHC18
Retention time: 0.630 min
Base peak: 235.21687
Precursor m/z: 235.21687
Precursor type: [M+H]+
m/z	relative intensity
98.0967	31
134.0964	1
233.201	52
235.2167	999
