Mass spectrum: INOSINE MONOPHOSPHATE; LC-ESI-QFT; MS2; CE: 30eV;  [M+H]+
Name: INOSINE MONOPHOSPHATE
Class: NA
Formula: C10H13N4O8P
Exact mass: 348.04710
SMILES: O[C@@H]1[C@@H](COP(O)(O)=O)O[C@H]([C@@H]1O)N1C=NC2=C1N=CNC2=O
InChI: InChI=1S/C10H13N4O8P/c15-6-4(1-21-23(18,19)20)22-10(7(6)16)14-3-13-5-8(14)11-2-12-9(5)17/h2-4,6-7,10,15-16H,1H2,(H,11,12,17)(H2,18,19,20)/t4-,6-,7-,10-/m1/s1
Instrument: Q-Exactive Orbitrap, Thermo Scientfic; Ultimate 3000 HPLC, Thermo Scientfic
Instrument type: LC-ESI-QFT
Ms type: MS2
Ion mode: POSITIVE
Ionization: ESI
Collision energy: 30eV
Column name: Acquity CSHC18
Retention time: 0.673 min
Base peak: 349.0544
Precursor m/z: 349.0544
Precursor type: [M+H]+
Precursor intensity: 132
m/z	relative intensity
51.8749	3
55.0297	6
61.3232	4
65.2873	3
69.0343	8
75.6557	4
79.7544	4
94.0405	4
97.029	999
98.0324	25
99.3793	5
104.6497	4
110.0352	9
114.4817	4
115.8101	5
116.2559	4
119.0355	6
134.3557	4
136.0622	7
138.0432	53
138.0494	176
149.7587	5
177.0331	4
203.2083	4
209.0621	4
209.1347	5
215.9336	5
284.4276	6
286.0142	4
