Mass spectrum: C18-02:0 PC; ESI-TOF; MS2; CE: 6.0000000;  [M+H]+
Name: C18-02:0 PC
Class: NA
Formula: C28H58NO7P
Exact mass: 551.39509
SMILES: [H]C([H])([H])C(=O)OC([H])(C([H])([H])OC([H])([H])C([H])([H])C([H])([H])C([H])([H])C([H])([H])C([H])([H])C([H])([H])C([H])([H])C([H])([H])C([H])([H])C([H])([H])C([H])([H])C([H])([H])C([H])([H])C([H])([H])C([H])([H])C([H])([H])C([H])([H])[H])C([H])([H])OP(=O)([O-])OC([H])([H])C([H])([H])[N+](C([H])([H])[H])(C([H])([H])[H])C([H])([H])[H]
InChI: InChI=1S/C28H58NO7P/c1-6-7-8-9-10-11-12-13-14-15-16-17-18-19-20-21-23-33-25-28(36-27(2)30)26-35-37(31,32)34-24-22-29(3,4)5/h28H,6-26H2,1-5H3
Instrument: waters xevo g2 TOF
Instrument type: ESI-TOF
Ms type: MS2
Ion mode: POSITIVE
Ionization: ESI
Collision energy: 6.0000000
Column name: Acquity CSHC18
Retention time: 8.614 min
Base peak: 552.40309
Precursor m/z: 552.40309
Precursor type: [M+H]+
m/z	relative intensity
98.9764	22
131.003	1
149.0232	1
184.074	54
185.077	3
240.1007	1
282.0419	4
282.6579	1
283.6591	4
287.6911	8
288.1914	3
295.1947	3
295.6795	51
296.1814	18
296.6826	4
297.8442	2
300.0147	1
303.6658	13
304.1696	3
304.6663	12
305.1672	4
305.6641	4
306.1658	2
306.664	1
309.211	1
360.6571	2
361.1588	1
369.3369	3
429.212	3
492.3821	249
493.3851	71
494.389	7
552.4954	999
553.4068	610
