Mass spectrum: Vanillylmandelic acid; ESI-TOF; MS2; CE: 0.6458333;  [M+H]+
Name: Vanillylmandelic acid
Class: NA
Formula: C9H10O5
Exact mass: 198.05282
SMILES: COC1=C(O)C=CC(=C1)C(O)C(O)=O
InChI: InChI=1S/C9H10O5/c1-14-7-4-5(2-3-6(7)10)8(11)9(12)13/h2-4,8,10-11H,1H3,(H,12,13)
Instrument: waters xevo g2 TOF
Instrument type: ESI-TOF
Ms type: MS2
Ion mode: POSITIVE
Ionization: ESI
Collision energy: 0.6458333
Column name: Acquity CSHC18
Retention time: 1.132 min
Base peak: 199.06082
Precursor m/z: 199.06082
Precursor type: [M+H]+
m/z	relative intensity
65.0401	148
77.04	16
82.0425	40
85.03	8
93.0346	554
94.0386	28
97.0657	54
105.0346	42
110.0368	80
111.0447	44
119.0093	10
121.0294	122
125.0607	327
126.0641	9
127.0558	8
128.0137	25
135.0449	12
137.0419	47
138.0319	14
139.0397	12
144.0582	20
147.0084	19
149.0243	999
150.0278	16
153.0555	136
154.0591	13
155.0559	12
159.0628	5
163.0399	159
163.9864	93
165.0071	15
181.0505	79
183.0454	23
184.0503	14
185.0592	4
187.0757	58
188.0787	5
191.0018	9
191.9509	45
192.9579	28
193.9628	4
201.0534	25
206.9749	22
207.9829	29
208.989	44
212.0494	3
213.0565	11
215.071	290
218.9974	86
220.0189	4
229.0488	14
241.9714	4
243.0253	20
253.0152	64
253.9842	14
254.9816	10
257.0814	28
258.0882	3
271.0599	16
275.0926	23
313.0703	17
313.9893	1
317.0615	4
325.0402	1
331.082	15
339.9678	16
343.9985	22
353.0362	1
355.0298	14
358.0147	15
359.05	10
370.0149	19
371.9954	35
387.0172	84
388.0233	16
398.0091	22
399.0392	174
400.0418	30
413.0141	2
415.0119	44
416.0173	39
432.0201	2
433.0224	14
435.0257	6
597.093	6
605.9712	2
666.9926	5
