Mass spectrum: 1-C16-2-C1 DG; ESI-TOF; MS2; CE: 6.0000000;  [M+H]+
Name: 1-C16-2-C1 DG
Class: NA
Formula: C20H42O3
Exact mass: 330.31340
SMILES: [H]OC([H])([H])C([H])(OC([H])([H])[H])C([H])([H])OC([H])([H])C([H])([H])C([H])([H])C([H])([H])C([H])([H])C([H])([H])C([H])([H])C([H])([H])C([H])([H])C([H])([H])C([H])([H])C([H])([H])C([H])([H])C([H])([H])C([H])([H])C([H])([H])[H]
InChI: InChI=1S/C20H42O3/c1-3-4-5-6-7-8-9-10-11-12-13-14-15-16-17-23-19-20(18-21)22-2/h20-21H,3-19H2,1-2H3
Instrument: waters xevo g2 TOF
Instrument type: ESI-TOF
Ms type: MS2
Ion mode: POSITIVE
Ionization: ESI
Collision energy: 6.0000000
Column name: Acquity CSHC18
Retention time: 8.121 min
Base peak: 331.32140
Precursor m/z: 331.32140
Precursor type: [M+H]+
m/z	relative intensity
75.0448	5
85.1021	13
89.0605	11
97.1021	2
107.0707	44
111.1175	3
145.0178	8
185.1381	152
185.6399	31
186.1405	3
194.1429	4
205.6518	10
255.2686	11
295.1944	4
299.2945	49
300.2993	11
313.3102	42
314.314	9
331.3236	999
332.3244	244
