Mass spectrum: 4-AMINOBENZOATE; LC-ESI-QTOF; MS2; CE: 40;  [M+H]+
Name: 4-AMINOBENZOATE
Class: NA
Formula: C7H7NO2
Exact mass: 137.04768
SMILES: NC1=CC=C(C=C1)C(O)=O
InChI: InChI=1S/C7H7NO2/c8-6-3-1-5(2-4-6)7(9)10/h1-4H,8H2,(H,9,10)
Instrument: Agilent 6530Â Q-TOF LC/MS
Instrument type: LC-ESI-QTOF
Ms type: MS2
Ion mode: POSITIVE
Ionization: ESI
Collision energy: 40
Column name: NA
Retention time: 0.200 min
Base peak: 138.05584
Precursor m/z: 138.05584
Precursor type: [M+H]+
Precursor intensity: 123.5
m/z	relative intensity
41.0339	220
41.0376	200
51.0195	200
65.0291	462
65.0337	912
65.0384	999
65.043	857
65.0476	666
65.0522	510
65.0569	396
65.0615	305
65.0661	232
65.0707	186
75.0072	191
75.0122	541
75.0171	697
75.0221	624
75.027	486
75.032	360
75.037	284
75.0419	232
75.0469	193
79.0356	179
79.0407	198
92.0388	289
92.0443	388
92.0498	362
92.0553	307
92.0608	260
92.0663	201
