Mass spectrum: Glutamic acid; LC-ESI-QTOF; MS2; CE: 60;  [M+H]+
Name: Glutamic acid
Class: NA
Formula: C5H9NO4
Exact mass: 147.05316
SMILES: C(CC(=O)O)C(C(=O)O)N
InChI: InChI=1S/C5H9NO4/c6-3(5(9)10)1-2-4(7)8/h3H,1-2,6H2,(H,7,8)(H,9,10)
Instrument: impact II
Instrument type: LC-ESI-QTOF
Ms type: MS2
Ion mode: POSITIVE
Ionization: ESI
Collision energy: 60
Column name: Acquity CSHC18
Retention time: 1.798 min
Base peak: 148.06020
Precursor m/z: 148.06020
Precursor type: [M+H]+
m/z	relative intensity
44.9977	13
45.0345	11
46.03	10
54.0092	8
54.0339	7
55.0182	72
56.05	999
57.0529	23
71.0134	9
84.0443	17
