Mass spectrum: 4-Aminohippuric acid; LC-ESI-ITFT; MS2; CE: 100;  [M+H]+
Name: 4-Aminohippuric acid
Class: Benzenoids; Benzene and substituted derivatives; Benzoic acids and derivatives
Formula: C9H10N2O3
Exact mass: 194.06914
SMILES: NC1=CC=C(C=C1)C(=O)NCC(O)=O
InChI: InChI=1S/C9H10N2O3/c10-7-3-1-6(2-4-7)9(14)11-5-8(12)13/h1-4H,5,10H2,(H,11,14)(H,12,13)
Instrument: Thermo Scientific Q-Exactive Focus
Instrument type: LC-ESI-ITFT
Ms type: MS2
Ion mode: POSITIVE
Ionization: ESI
Collision energy: 100
Column name: Acquity CSHC18
Retention time: 2.571 min
Base peak: 195.07642
Precursor m/z: 195.07642
Precursor type: [M+H]+
m/z	relative intensity
50.0157	105
51.0235	48
52.0188	82
53.0028	999
55.0184	75
62.0156	89
63.0234	113
65.0391	413
74.0155	214
91.3329	25
