Mass spectrum: QUINATE; LC-ESI-QTOF; MS2; CE: 20;  [M-H]-
Name: QUINATE
Class: NA
Formula: C7H12O6
Exact mass: 192.06339
SMILES: O[C@@H]1C[C@@](O)(C[C@@H](O)[C@H]1O)C(O)=O
InChI: InChI=1S/C7H12O6/c8-3-1-7(13,6(11)12)2-4(9)5(3)10/h3-5,8-10,13H,1-2H2,(H,11,12)/t3-,4-,5-,7+/m1/s1
Instrument: Agilent 6530Â Q-TOF LC/MS
Instrument type: LC-ESI-QTOF
Ms type: MS2
Ion mode: NEGATIVE
Ionization: ESI
Collision energy: 20
Column name: NA
Retention time: 0.200 min
Base peak: 191.05221
Precursor m/z: 191.05221
Precursor type: [M-H]-
Precursor intensity: 156
m/z	relative intensity
41.0122	117
43.0323	125
45.0106	133
55.0249	136
57.0422	139
59.0275	150
67.0241	162
69.0388	176
71.0205	177
81.0398	189
83.055	204
85.05	232
87.0179	265
93.0482	440
108.0206	459
109.0331	470
111.0451	529
127.0463	891
191.072	999
