Mass spectrum: AL 8810 isopropyl ester; ESI-TOF; MS2; CE: 6.0000000;  [M+H]+
Name: AL 8810 isopropyl ester
Class: NA
Formula: C27H37FO4
Exact mass: 444.26759
SMILES: CC(C)OC(CCC/C=C\C[C@@H]1[C@@H](/C=C/[C@H](O)C2CC3=CC=CC=C3C2)[C@@H](F)C[C@@H]1O)=O
InChI: InChI=1S/C27H37FO4/c1-18(2)32-27(31)12-6-4-3-5-11-23-22(24(28)17-26(23)30)13-14-25(29)21-15-19-9-7-8-10-20(19)16-21/h3,5,7-10,13-14,18,21-26,29-30H,4,6,11-12,15-17H2,1-2H3/b5-3-,14-13+/t22-,23-,24+,25+,26+/m1/s1
Instrument: waters xevo g2 TOF
Instrument type: ESI-TOF
Ms type: MS2
Ion mode: POSITIVE
Ionization: ESI
Collision energy: 6.0000000
Column name: Acquity CSHC18
Retention time: 4.644 min
Base peak: 445.27559
Precursor m/z: 445.27559
Precursor type: [M+H]+
m/z	relative intensity
117.0712	12
129.071	125
130.0736	8
143.0865	28
155.0871	36
171.1173	33
184.074	11
185.1142	11
187.1124	38
193.0773	167
197.0946	5
199.1127	12
201.1263	4
202.083	172
205.1104	13
211.0869	48
213.1269	62
215.1064	41
217.1209	31
219.1166	21
231.1352	109
232.1251	10
257.1537	12
259.1578	11
261.1623	3
265.1366	5
273.1836	65
291.1947	42
311.1778	43
329.1902	281
330.1903	66
331.1828	6
345.1795	12
347.2009	652
348.2045	143
349.1978	159
350.2003	33
363.2312	25
365.2117	251
366.214	51
367.2067	788
368.2116	196
369.2114	22
371.2332	36
372.2439	5
385.2199	304
386.2207	10
387.2281	17
389.2476	999
390.2517	278
391.2508	44
392.2618	7
403.1588	24
407.257	451
408.2623	131
409.2532	320
410.2577	95
411.2592	8
421.1691	35
422.1713	8
425.2545	11
426.2311	28
427.1934	487
428.267	239
429.2606	19
435.2349	107
435.7401	63
436.2423	16
444.2428	159
444.7434	83
445.2426	48
445.7388	14
