Mass spectrum: Prostaglandin F2-alpha dimethyl amine; ESI-TOF; MS2; CE: 0.6458333;  [M+H]+
Name: Prostaglandin F2-alpha dimethyl amine
Class: NA
Formula: C22H41NO3
Exact mass: 367.30864
SMILES: O[C@@H]1C(C/C=C\CCCCN(C)C)[C@@H](/C=C/[C@@H](O)CCCCC)[C@H](O)C1
InChI: InChI=1S/C22H41NO3/c1-4-5-9-12-18(24)14-15-20-19(21(25)17-22(20)26)13-10-7-6-8-11-16-23(2)3/h7,10,14-15,18-22,24-26H,4-6,8-9,11-13,16-17H2,1-3H3/b10-7-,15-14+/t18-,19?,20+,21-,22+/m0/s1
Instrument: waters xevo g2 TOF
Instrument type: ESI-TOF
Ms type: MS2
Ion mode: POSITIVE
Ionization: ESI
Collision energy: 0.6458333
Column name: Acquity CSHC18
Retention time: 2.515 min
Base peak: 368.31664
Precursor m/z: 368.31664
Precursor type: [M+H]+
m/z	relative intensity
58.0639	35
81.0705	45
84.0816	331
91.0545	34
93.0703	40
95.0868	71
96.9625	1
98.0974	54
99.0822	18
109.1021	14
117.0711	19
119.0859	32
121.1014	27
124.1145	12
129.0707	11
131.0871	38
133.101	21
135.116	11
140.1447	8
141.1526	167
142.122	7
144.1395	23
145.1005	47
147.1176	16
157.0991	7
159.1166	30
161.1337	20
173.1322	19
185.1321	16
195.0642	1
278.2846	77
279.291	11
288.2688	44
306.2802	217
307.2834	43
308.2888	28
314.2848	52
315.286	6
332.2957	681
333.2978	149
334.3039	16
350.3062	547
351.3095	999
352.3124	113
368.3169	679
368.3179	72
369.32	12
370.3235	1
371.3299	1
390.2967	1
