Mass spectrum: 8-iso Prostaglandin E1; ESI-TOF; MS2; CE: 0.6458333;  [M+H]+
Name: 8-iso Prostaglandin E1
Class: NA
Formula: C20H34O5
Exact mass: 354.24062
SMILES: CCCCC[C@H](O)\C=C\[C@H]1[C@H](O)CC(=O)[C@H]1CCCCCCC(O)=O
InChI: InChI=1S/C20H34O5/c1-2-3-6-9-15(21)12-13-17-16(18(22)14-19(17)23)10-7-4-5-8-11-20(24)25/h12-13,15-17,19,21,23H,2-11,14H2,1H3,(H,24,25)/b13-12+/t15-,16-,17+,19+/m0/s1
Instrument: waters xevo g2 TOF
Instrument type: ESI-TOF
Ms type: MS2
Ion mode: POSITIVE
Ionization: ESI
Collision energy: 0.6458333
Column name: Acquity CSHC18
Retention time: 3.570 min
Base peak: 355.24862
Precursor m/z: 355.24862
Precursor type: [M+H]+
m/z	relative intensity
67.0538	228
83.0859	176
130.0763	49
147.0817	328
159.1183	280
163.1113	100
175.1108	92
188.097	8
189.1104	96
191.1077	8
193.1228	8
195.1185	47
203.1442	352
219.1402	8
253.0765	27
255.21	167
265.2161	8
273.2209	214
274.2225	8
275.1993	8
276.2041	8
278.2194	8
283.2043	205
284.2092	8
289.215	116
290.2161	8
291.2306	8
301.2167	999
302.2196	8
304.2985	8
305.1939	123
317.2116	8
319.2272	425
320.1888	196
337.2377	8
338.2412	8
356.2109	335
356.7147	120
357.1917	232
