Mass spectrum: Apigenin; LC-ESI-QTOF; MS2; CE: 15;  [M-H]-
Name: Apigenin
Class: NA
Formula: C15H10O5
Exact mass: 270.0528
SMILES: C1=CC(=CC=C1C2=CC(=O)C3=C(C=C(C=C3O2)O)O)O
InChI: InChI=1S/C15H10O5/c16-9-3-1-8(2-4-9)13-7-12(19)15-11(18)5-10(17)6-14(15)20-13/h1-7,16-18H
Instrument: Bruker MicrOTOF-Q
Instrument type: LC-ESI-QTOF
Ms type: MS2
Ion mode: NEGATIVE
Ionization: ESI
Collision energy: 15
Column name: Acquity CSHC18
Retention time: NA
Base peak: 269.0455
Precursor m/z: 269.0455
Precursor type: [M-H]-
m/z	relative intensity
45.6541	7
48.102	8
50.9003	8
53.5031	7
59.9463	8
77.495	8
99.8021	9
122.8661	18
136.7402	6
141.7907	9
150.3403	90
156.6103	11
167.0169	12
181.3548	27
188.4391	9
191.1024	9
202.9297	32
214.0528	11
215.3016	7
216.7632	10
219.1248	9
221.1647	8
234.7806	62
251.0444	13
254.0896	17
256.8937	8
259.6857	9
262.1719	9
265.2811	7
267.5053	59
274.295	999
280.8714	10
281.6781	5
283.0586	4
284.1272	7
284.9741	5
285.9659	7
286.8817	4
287.5689	6
288.7823	5
290.9408	6
291.4762	4
292.2574	6
292.9972	4
293.7883	6
294.5016	5
297.7839	7
298.9415	5
301.5172	7
303.2791	5
304.7784	12
307.1774	6
309.203	6
310.0487	4
310.5095	11
313.1275	4
318.8723	7
319.8658	9
320.5779	5
321.7994	4
323.0015	6
334.9415	6
337.1721	9
341.9611	9
346.9647	10
351.6231	10
354.3626	7
358.451	5
360.5018	9
360.9761	8
362.6512	7
364.3341	7
365.0726	10
367.5883	7
369.4874	5
370.7797	11
372.5392	6
375.3368	5
376.1369	4
378.5829	8
387.1851	5
387.9277	7
391.7261	6
398.3853	10
401.1294	7
403.7637	8
404.3763	4
407.0062	8
407.9216	5
420.0434	11
421.3088	8
422.6172	8
423.4635	9
424.315	9
425.9392	9
427.7684	6
429.9956	5
431.1624	7
431.8496	6
432.7302	8
437.6825	4
444.9902	7
447.555	7
448.5201	8
450.8271	9
456.2765	7
458.1982	9
462.9276	10
467.9712	16
470.6534	8
482.3112	8
483.7249	4
485.0123	9
489.4133	8
492.6729	7
494.4722	8
497.5657	6
503.8846	7
512.7091	5
521.9613	9
545.0264	6
550.8828	9
551.3511	4
564.4967	5
567.5122	5
568.8526	7
570.4504	6
578.1166	7
596.4862	7
611.4099	5
617.9181	6
620.08	7
621.5768	9
648.1436	4
749.8574	4
753.1151	5
797.783	4
818.6796	7
844.5753	5
877.3179	5
890.5641	7
983.2583	6
