Mass spectrum: 3-HYDROXYPHENYLACETATE; LC-ESI-QFT; MS2; CE: 30eV;  [M+H]+
Name: 3-HYDROXYPHENYLACETATE
Class: NA
Formula: C8H8O3
Exact mass: 152.04734
SMILES: OC(=O)CC1=CC=CC(O)=C1
InChI: InChI=1S/C8H8O3/c9-7-3-1-2-6(4-7)5-8(10)11/h1-4,9H,5H2,(H,10,11)
Instrument: Q-Exactive Orbitrap, Thermo Scientfic; Ultimate 3000 HPLC, Thermo Scientfic
Instrument type: LC-ESI-QFT
Ms type: MS2
Ion mode: POSITIVE
Ionization: ESI
Collision energy: 30eV
Column name: Acquity CSHC18
Retention time: 1.658 min
Base peak: 153.0546
Precursor m/z: 153.0546
Precursor type: [M+H]+
Precursor intensity: 170
m/z	relative intensity
52.3725	11
52.7699	7
53.4683	6
53.9016	9
56.6608	9
59.5318	8
65.0392	143
68.9433	38
72.5342	8
80.6906	8
93.0339	300
93.0702	13
95.0494	18
97.0653	14
99.6611	9
106.9753	9
107.0859	20
109.0652	11
109.1014	21
109.9586	9
110.0364	50
111.0443	999
111.0807	16
112.0476	23
112.9763	64
116.979	9
119.7807	9
121.0286	185
124.0763	13
125.0598	934
125.0964	10
126.0631	19
129.9917	36
131.7008	11
135.0803	11
135.1167	15
135.9454	10
144.9659	11
151.8564	8
153.0546	590
153.0909	12
153.1274	38
153.9559	13
