Mass spectrum: (22S,25S)-22,26-Nitrosepimino-5alpha-cholestan-3beta-16alpha-diol; APCI-ITFT; MS2; CE: 35 CID;  [M+H]+
Name: (22S,25S)-22,26-Nitrosepimino-5alpha-cholestan-3beta-16alpha-diol
Class: NA
Formula: C27H46N2O3
Exact mass: 446.35084
SMILES: C[C@@]12[C@](CC[C@]3([H])[C@@]([H])2CC[C@@]4(C)[C@@]3([H])C[C@@H](O)[C@]4([H])[C@H](C)[C@@H]5CC[C@H](C)CN5N=O)([H])C[C@@H](O)CC1
InChI: InChI=1S/C27H46N2O3/c1-16-5-8-23(29(15-16)28-32)17(2)25-24(31)14-22-20-7-6-18-13-19(30)9-11-26(18,3)21(20)10-12-27(22,25)4/h16-25,30-31H,5-15H2,1-4H3/t16-,17+,18-,19-,20+,21-,22-,23-,24+,25-,26-,27-/m0/s1
Instrument: Orbitrap Elite
Instrument type: APCI-ITFT
Ms type: MS2
Ion mode: POSITIVE
Ionization: APCI
Collision energy: 35 CID
Column name: Acquity CSHC18
Retention time: 0.286 min
Base peak: 447.35770
Precursor m/z: 447.35770
Precursor type: [M+H]+
Precursor intensity: 242709400
m/z	relative intensity
131.1231	14
140.1428	56
165.1148	83
166.1169	17
170.3515	15
230.16	14
243.6195	13
255.209	23
273.222	46
274.2253	25
336.118	13
399.3444	124
410.3019	34
411.3061	36
414.3337	32
415.3374	180
416.3528	999
417.3554	142
428.3545	401
429.355	729
430.3361	28
447.3647	43
