Mass spectrum: Isofraxidin; LC-ESI-QTOF; MS2; CE: 50eV;  [M+H]+
Name: Isofraxidin
Class: Coumarin
Formula: C11H10O5
Exact mass: 222.0528
SMILES: O=C1C=CC2=CC(OC)=C(O)C(OC)=C2O1
InChI: InChI=1S/C11H10O5/c1-14-7-5-6-3-4-8(12)16-10(6)11(15-2)9(7)13/h3-5,13H,1-2H3
Instrument: TIMS-TOF Pro, Bruker Daltonik; Elute UHPLC System, Bruker Daltonik
Instrument type: LC-ESI-QTOF
Ms type: MS2
Ion mode: POSITIVE
Ionization: ESI
Collision energy: 50eV
Column name: Acquity CSHC18
Retention time: 5.439 min
Base peak: 223.0603
Precursor m/z: 223.0603
Precursor type: [M+H]+
Precursor intensity: 1024255
m/z	relative intensity
50.014	6
52.0301	25
59.1416	4
62.015	4
66.0467	17
68.9969	6
74.7199	2
76.0313	55
77.039	100
78.0463	146
79.0489	8
81.0333	31
83.0076	4
84.5732	5
88.0308	14
89.0385	18
92.026	12
94.0414	10
95.0488	18
104.0249	11
105.0322	17
106.0412	27
107.0467	7
108.0207	23
109.0323	4
117.0334	6
118.0413	9
121.0284	9
123.044	49
123.9414	5
132.0211	19
133.0275	37
134.0359	56
135.0352	36
136.0474	5
137.0244	5
145.041	13
147.01	6
148.0468	6
149.0233	15
150.0322	21
152.0464	8
161.0259	10
162.0301	371
162.7924	4
163.0394	231
164.0438	24
165.0186	16
167.0712	18
172.0169	1
178.0261	25
179.0331	184
180.0408	41
190.0084	399
191.029	93
192.0456	6
193.0165	12
194.0561	28
195.0653	37
205.0054	2
207.0277	232
208.0357	599
209.0392	41
210.9383	6
222.052	3
223.0438	999
