Mass spectrum: Cer(d18:1/24:1(15Z)); LC-ESI-ITFT; MS2; CE: 60;  [M+H]+
Name: Cer(d18:1/24:1(15Z))
Class: Lipids and lipid-like molecules; Sphingolipids; Ceramides
Formula: C42H81NO3
Exact mass: 647.62165
SMILES: CCCCCCCCCCCCC\C=C\[C@@H](O)[C@H](CO)NC(=O)CCCCCCCCCCCCC\C=C/CCCCCCCC
InChI: InChI=1S/C42H81NO3/c1-3-5-7-9-11-13-15-17-18-19-20-21-22-23-24-26-28-30-32-34-36-38-42(46)43-40(39-44)41(45)37-35-33-31-29-27-25-16-14-12-10-8-6-4-2/h17-18,35,37,40-41,44-45H,3-16,19-34,36,38-39H2,1-2H3,(H,43,46)/b18-17-,37-35+/t40-,41+/m0/s1
Instrument: Thermo Scientific Q-Exactive Focus
Instrument type: LC-ESI-ITFT
Ms type: MS2
Ion mode: POSITIVE
Ionization: ESI
Collision energy: 60
Column name: Acquity CSHC18
Retention time: 2.014 min
Base peak: 648.62891
Precursor m/z: 648.62891
Precursor type: [M+H]+
m/z	relative intensity
56.05	69
67.0547	66
79.0546	51
81.0702	63
82.0655	296
93.0701	53
95.0858	58
96.081	64
252.2682	55
264.2684	999
