Mass spectrum: 4-Hydroxycinnamic acid; LC-ESI-ITFT; MS2; CE: 10;  [M-H]-
Name: 4-Hydroxycinnamic acid
Class: Phenylpropanoids and polyketides; Cinnamic acids and derivatives; Hydroxycinnamic acids and derivatives
Formula: C9H8O3
Exact mass: 164.04734
SMILES: OC(=O)\C=C\C1=CC=C(O)C=C1
InChI: InChI=1S/C9H8O3/c10-8-4-1-7(2-5-8)3-6-9(11)12/h1-6,10H,(H,11,12)/b6-3+
Instrument: Thermo Scientific Q-Exactive Focus
Instrument type: LC-ESI-ITFT
Ms type: MS2
Ion mode: NEGATIVE
Ionization: ESI
Collision energy: 10
Column name: Acquity CSHC18
Retention time: 0.360 min
Base peak: 163.04007
Precursor m/z: 163.04007
Precursor type: [M-H]-
m/z	relative intensity
94.8031	2
102.7833	2
119.0491	999
129.1391	2
131.0142	2
162.7686	2
162.8382	36
163.0391	198
167.3064	2
174.058	2
