Mass spectrum: Homovanillic acid; LC-ESI-ITFT; MS2; CE: 40;  [M-H]-
Name: Homovanillic acid
Class: Benzenoids; Phenols; Methoxyphenols
Formula: C9H10O4
Exact mass: 182.05791
SMILES: COC1=CC(CC(O)=O)=CC=C1O
InChI: InChI=1S/C9H10O4/c1-13-8-4-6(5-9(11)12)2-3-7(8)10/h2-4,10H,5H2,1H3,(H,11,12)
Instrument: Thermo Scientific Q-Exactive Focus
Instrument type: LC-ESI-ITFT
Ms type: MS2
Ion mode: NEGATIVE
Ionization: ESI
Collision energy: 40
Column name: Acquity CSHC18
Retention time: 1.481 min
Base peak: 181.05063
Precursor m/z: 181.05063
Precursor type: [M-H]-
m/z	relative intensity
57.9745	514
67.8766	82
78.9578	320
80.9156	94
92.9187	999
93.0333	89
123.9452	317
135.5226	86
167.9037	140
203.5239	83
