Mass spectrum: desmosterol; ESI-TOF; MS2; CE: 6.0000000;  [M+H]+
Name: desmosterol
Class: NA
Formula: C27H44O
Exact mass: 384.33922
SMILES: [H]OC4([H])(C([H])([H])C3=C([H])C([H])([H])C1([H])(C([H])(C([H])([H])C([H])([H])C2(C([H])([H])[H])(C([H])(C([H])([H])C([H])([H])C12([H]))C([H])(C([H])([H])[H])C([H])([H])C([H])([H])C([H])=C(C([H])([H])[H])C([H])([H])[H]))C3(C([H])([H])[H])C([H])([H])C4([H])([H])))
InChI: InChI=1S/C27H44O/c1-18(2)7-6-8-19(3)23-11-12-24-22-10-9-20-17-21(28)13-15-26(20,4)25(22)14-16-27(23,24)5/h7,9,19,21-25,28H,6,8,10-17H2,1-5H3
Instrument: waters xevo g2 TOF
Instrument type: ESI-TOF
Ms type: MS2
Ion mode: POSITIVE
Ionization: ESI
Collision energy: 6.0000000
Column name: Acquity CSHC18
Retention time: 10.272 min
Base peak: 385.34722
Precursor m/z: 385.34722
Precursor type: [M+H]+
m/z	relative intensity
109.1014	8
119.0855	4
123.1173	12
125.9866	58
135.1175	20
137.1328	13
147.1168	34
149.1331	31
159.1169	21
161.1332	46
163.1478	19
173.1322	9
175.149	35
203.1794	39
215.1789	37
217.1947	21
229.1959	29
231.2108	18
243.2125	32
255.2106	12
257.2291	51
271.246	13
283.2413	18
285.259	59
367.3369	999
368.3402	300
369.3436	45
383.3304	11
404.321	23
407.3292	72
408.3309	15
596.4905	22
788.6582	67
789.163	77
789.665	46
790.1643	18
791.6696	33
792.6688	18
792.6741	14
981.3363	20
981.8397	16
