Mass spectrum: Biochanin A; LC-ESI-ITFT; MS2; CE: 20;  [M+H]+
Name: Biochanin A
Class: Phenylpropanoids and polyketides; Isoflavonoids; O-methylated isoflavonoids
Formula: C16H12O5
Exact mass: 284.06847
SMILES: COC1=CC=C(C=C1)C1=COC2=CC(O)=CC(O)=C2C1=O
InChI: InChI=1S/C16H12O5/c1-20-11-4-2-9(3-5-11)12-8-21-14-7-10(17)6-13(18)15(14)16(12)19/h2-8,17-18H,1H3
Instrument: Thermo Scientific Q-Exactive Focus
Instrument type: LC-ESI-ITFT
Ms type: MS2
Ion mode: POSITIVE
Ionization: ESI
Collision energy: 20
Column name: Acquity CSHC18
Retention time: 0.632 min
Base peak: 285.07574
Precursor m/z: 285.07574
Precursor type: [M+H]+
m/z	relative intensity
123.0441	13
149.0232	14
152.0103	16
153.018	7
170.0208	16
229.0856	27
253.049	16
269.0439	9
270.0517	52
285.0755	999
