Mass spectrum: 1,2-dieicosenoyl-sn-glycero-3-phosphocholine; ESI-TOF; MS2; CE: 6.0000000;  [M+H]+
Name: 1,2-dieicosenoyl-sn-glycero-3-phosphocholine
Class: NA
Formula: C48H92NO8P
Exact mass: 841.65606
SMILES: [H]C(=C([H])C([H])([H])C([H])([H])C([H])([H])C([H])([H])C([H])([H])C([H])([H])C([H])([H])C([H])([H])C([H])([H])C(=O)OC([H])([H])C([H])(OC(=O)C([H])([H])C([H])([H])C([H])([H])C([H])([H])C([H])([H])C([H])([H])C([H])([H])C([H])([H])C([H])([H])C([H])=C([H])C([H])([H])C([H])([H])C([H])([H])C([H])([H])C([H])([H])C([H])([H])C([H])([H])C([H])([H])[H])C([H])([H])OP(=O)([O-])OC([H])([H])C([H])([H])[N+](C([H])([H])[H])(C([H])([H])[H])C([H])([H])[H])C([H])([H])C([H])([H])C([H])([H])C([H])([H])C([H])([H])C([H])([H])C([H])([H])C([H])([H])[H]
InChI: InChI=1S/C48H92NO8P/c1-6-8-10-12-14-16-18-20-22-24-26-28-30-32-34-36-38-40-47(50)54-44-46(45-56-58(52,53)55-43-42-49(3,4)5)57-48(51)41-39-37-35-33-31-29-27-25-23-21-19-17-15-13-11-9-7-2/h20-23,46H,6-19,24-45H2,1-5H3
Instrument: waters xevo g2 TOF
Instrument type: ESI-TOF
Ms type: MS2
Ion mode: POSITIVE
Ionization: ESI
Collision energy: 6.0000000
Column name: Acquity CSHC18
Retention time: 12.063 min
Base peak: 842.66406
Precursor m/z: 842.66406
Precursor type: [M+H]+
m/z	relative intensity
101.965	2
145.9556	3
173.9618	2
184.0744	3
302.1549	2
349.2419	50
350.2457	10
351.2444	2
365.2145	11
367.2141	3
440.8091	106
441.3108	38
442.3118	2
505.788	8
532.3763	93
533.3793	35
534.3822	2
602.7487	2
659.5962	5
660.6008	1
816.6481	6
817.6527	1
838.6263	1
842.7712	947
843.6654	999
