Mass spectrum: Inositol 2-phosphate; LC-ESI-QTOF; MS2; CE: -10, -35, -60V;  [M-H]-
Name: Inositol 2-phosphate
Class: NA
Formula: C6H13O9P
Exact mass: 260.0297
SMILES: C1(C(C(C(C(C1O)O)OP(=O)(O)O)O)O)O
InChI: InChI=1S/C6H13O9P/c7-1-2(8)4(10)6(5(11)3(1)9)15-16(12,13)14/h1-11H,(H2,12,13,14)
Instrument: TripleToF 5600; Sciex
Instrument type: LC-ESI-QTOF
Ms type: MS2
Ion mode: NEGATIVE
Ionization: ESI
Collision energy: -10, -35, -60V
Column name: Acquity CSHC18
Retention time: 7.576 min
Base peak: 259.0241
Precursor m/z: 259.0241
Precursor type: [M-H]-
Precursor intensity: 31785.56
m/z	relative intensity
78.959	421
96.9673	19
242.1753	14
246.1721	9
257.0085	47
258.2047	51
259.022	999
