Mass spectrum: 5-HYDROXYTRYPTOPHAN; LC-ESI-QFT; MS2; CE: 30eV;  [M+H]+
Name: 5-HYDROXYTRYPTOPHAN
Class: NA
Formula: C11H12N2O3
Exact mass: 220.08479
SMILES: NC(CC1=CNC2=C1C=C(O)C=C2)C(O)=O
InChI: InChI=1S/C11H12N2O3/c12-9(11(15)16)3-6-5-13-10-2-1-7(14)4-8(6)10/h1-2,4-5,9,13-14H,3,12H2,(H,15,16)
Instrument: Q-Exactive Orbitrap, Thermo Scientfic; Ultimate 3000 HPLC, Thermo Scientfic
Instrument type: LC-ESI-QFT
Ms type: MS2
Ion mode: POSITIVE
Ionization: ESI
Collision energy: 30eV
Column name: Acquity CSHC18
Retention time: 1.183 min
Base peak: 221.0921
Precursor m/z: 221.0921
Precursor type: [M+H]+
Precursor intensity: 154
m/z	relative intensity
52.2416	1
52.2427	1
74.0245	2
106.0657	1
111.8833	1
113.8645	1
114.7805	1
115.0546	6
120.7774	1
126.9155	1
130.0652	1
132.0813	12
133.0525	1
133.0652	1
134.0605	58
135.064	1
140.9307	1
142.0656	1
146.0604	16
147.0683	5
148.0761	37
152.8327	1
158.0605	28
159.0444	1
159.068	11
159.2969	1
160.0396	7
160.0762	205
161.0795	10
162.0554	999
163.0519	1
163.0586	43
175.0871	109
176.0713	6
176.0905	6
178.1222	1
186.0555	87
187.0587	4
205.0695	153
205.0835	1
221.0925	13
222.1133	4
