Mass spectrum: Rhapontin; LC-ESI-QTOF; MS2; CE: 24.09;  [M+H]+
Name: Rhapontin
Class: NA
Formula: C21H24O9
Exact mass: 420.1420
SMILES: COC1=C(C=C(C=C1)C=CC2=CC(=CC(=C2)OC3C(C(C(C(O3)CO)O)O)O)O)O
InChI: InChI=1S/C21H24O9/c1-28-16-5-4-11(8-15(16)24)2-3-12-6-13(23)9-14(7-12)29-21-20(27)19(26)18(25)17(10-22)30-21/h2-9,17-27H,10H2,1H3
Instrument: Bruker MicrOTOF-Q
Instrument type: LC-ESI-QTOF
Ms type: MS2
Ion mode: POSITIVE
Ionization: ESI
Collision energy: 24.09
Column name: Acquity CSHC18
Retention time: NA
Base peak: 421.1493
Precursor m/z: 421.1493
Precursor type: [M+H]+
m/z	relative intensity
135.0429	19
149.058	19
175.0741	20
181.0644	21
197.0594	22
199.0749	24
200.0782	25
209.0594	33
210.0623	47
213.0903	50
225.0549	58
226.0609	60
227.0694	80
228.0742	90
241.0851	93
244.072	100
258.0875	157
259.096	233
260.0991	335
271.0956	999
