Mass spectrum: Maltotriose; LC-ESI-ITFT; MS2; CE: 100;  [M-H]-
Name: Maltotriose
Class: Organic oxygen compounds; Organooxygen compounds; Carbohydrates and carbohydrate conjugates
Formula: C18H32O16
Exact mass: 504.16903
SMILES: OC[C@H]1O[C@H](O[C@H]2[C@H](O)[C@@H](O)[C@@H](O[C@H]3[C@H](O)[C@@H](O)C(O)O[C@@H]3CO)O[C@@H]2CO)[C@H](O)[C@@H](O)[C@@H]1O
InChI: InChI=1S/C18H32O16/c19-1-4-7(22)8(23)12(27)17(31-4)34-15-6(3-21)32-18(13(28)10(15)25)33-14-5(2-20)30-16(29)11(26)9(14)24/h4-29H,1-3H2/t4-,5-,6-,7-,8+,9-,10-,11-,12-,13-,14-,15-,16?,17-,18-/m1/s1
Instrument: Thermo Scientific Q-Exactive Focus
Instrument type: LC-ESI-ITFT
Ms type: MS2
Ion mode: NEGATIVE
Ionization: ESI
Collision energy: 100
Column name: Acquity CSHC18
Retention time: 2.584 min
Base peak: 503.16177
Precursor m/z: 503.16177
Precursor type: [M-H]-
m/z	relative intensity
55.0178	134
58.0049	68
59.0127	999
69.0334	102
71.0127	523
72.9919	107
73.0283	93
83.0127	68
85.0283	98
97.0283	58
