Mass spectrum: O-PHOSPHOETHANOLAMINE; LC-ESI-QTOF; MS2; CE: 20;  [M-H]-
Name: O-PHOSPHOETHANOLAMINE
Class: NA
Formula: C2H8NO4P
Exact mass: 141.01909
SMILES: NCCOP(O)(O)=O
InChI: InChI=1S/C2H8NO4P/c3-1-2-7-8(4,5)6/h1-3H2,(H2,4,5,6)
Instrument: Agilent 6530Â Q-TOF LC/MS
Instrument type: LC-ESI-QTOF
Ms type: MS2
Ion mode: NEGATIVE
Ionization: ESI
Collision energy: 20
Column name: NA
Retention time: 0.200 min
Base peak: 140.01060
Precursor m/z: 140.01060
Precursor type: [M-H]-
Precursor intensity: 171
m/z	relative intensity
62.9654	146
78.9737	999
