Mass spectrum: 2-Arachidonyl Glycerol ether; ESI-TOF; MS2; CE: 6.0000000;  [M+H]+
Name: 2-Arachidonyl Glycerol ether
Class: NA
Formula: C23H40O3
Exact mass: 364.29775
SMILES: CCCCCC=CCC=CCC=CCC=CCCCCOC(CO)CO
InChI: InChI=1S/C23H40O3/c1-2-3-4-5-6-7-8-9-10-11-12-13-14-15-16-17-18-19-20-26-23(21-24)22-25/h6-7,9-10,12-13,15-16,23-25H,2-5,8,11,14,17-22H2,1H3
Instrument: waters xevo g2 TOF
Instrument type: ESI-TOF
Ms type: MS2
Ion mode: POSITIVE
Ionization: ESI
Collision energy: 6.0000000
Column name: Acquity CSHC18
Retention time: 6.881 min
Base peak: 365.30575
Precursor m/z: 365.30575
Precursor type: [M+H]+
m/z	relative intensity
81.0705	13
91.0553	1
93.0706	7
95.0862	18
105.0707	15
107.0868	7
109.1018	19
119.0863	7
121.1016	63
122.105	6
123.1168	10
131.0021	14
133.1018	14
135.1175	56
137.1323	12
147.1172	26
149.1328	17
151.1486	15
156.1067	4
161.1328	38
163.1483	20
165.1642	7
175.149	81
176.1528	11
177.1643	60
189.1642	74
190.1679	11
191.1797	88
192.183	12
202.1305	238
202.6322	63
203.1797	22
205.1956	34
217.1962	21
231.2121	25
273.2585	999
274.2622	227
275.2662	33
291.2701	30
344.1804	6
365.3068	799
366.3098	215
