Mass spectrum: Pyroglutamic acid; ESI-TOF; MS2; CE: 6.0000000;  [M+H]+
Name: Pyroglutamic acid
Class: NA
Formula: C5H7NO3
Exact mass: 129.04259
SMILES: OC(=O)C1CCC(=O)N1
InChI: InChI=1S/C5H7NO3/c7-4-2-1-3(6-4)5(8)9/h3H,1-2H2,(H,6,7)(H,8,9)
Instrument: waters xevo g2 TOF
Instrument type: ESI-TOF
Ms type: MS2
Ion mode: POSITIVE
Ionization: ESI
Collision energy: 6.0000000
Column name: Acquity CSHC18
Retention time: 0.781 min
Base peak: 130.05059
Precursor m/z: 130.05059
Precursor type: [M+H]+
m/z	relative intensity
84.0451	1
84.0452	1
96.9614	70
110.9772	1
126.9718	19
130.0503	821
131.0533	169
135.9923	45
135.9927	51
137.988	999
138.9717	3
152.0327	129
156.9812	1
156.9824	1
156.9825	15
158.0032	86
158.0034	100
158.0038	160
167.998	1
170.9823	25
179.9982	142
184.9777	1
202.0191	15
214.9875	47
226.0034	60
226.0047	82
250.9543	21
250.9566	17
260.9922	37
260.9931	75
271.0006	32
271.0014	52
314.0183	79
