Mass spectrum: Sphinganine; LC-ESI-ITFT; MS2; CE: 100;  [M+H]+
Name: Sphinganine
Class: Organic nitrogen compounds; Organonitrogen compounds; Amines
Formula: C18H39NO2
Exact mass: 301.29808
SMILES: CCCCCCCCCCCCCCC[C@@H](O)[C@@H](N)CO
InChI: InChI=1S/C18H39NO2/c1-2-3-4-5-6-7-8-9-10-11-12-13-14-15-18(21)17(19)16-20/h17-18,20-21H,2-16,19H2,1H3/t17-,18+/m0/s1
Instrument: Thermo Scientific Q-Exactive Focus
Instrument type: LC-ESI-ITFT
Ms type: MS2
Ion mode: POSITIVE
Ionization: ESI
Collision energy: 100
Column name: Acquity CSHC18
Retention time: 2.305 min
Base peak: 302.30536
Precursor m/z: 302.30536
Precursor type: [M+H]+
m/z	relative intensity
53.0028	509
53.0391	310
55.0548	999
60.0449	836
65.0391	263
67.0547	451
79.0546	152
92.5222	311
190.0733	143
250.551	141
