Mass spectrum: TRIGONELLINE; LC-ESI-QFT; MS2; CE: 30eV;  [M+H]+
Name: TRIGONELLINE
Class: NA
Formula: C7H7NO2
Exact mass: 137.04768
SMILES: C[N+]1=CC(=CC=C1)C([O-])=O
InChI: InChI=1S/C7H7NO2/c1-8-4-2-3-6(5-8)7(9)10/h2-5H,1H3
Instrument: Q-Exactive Orbitrap, Thermo Scientfic; Ultimate 3000 HPLC, Thermo Scientfic
Instrument type: LC-ESI-QFT
Ms type: MS2
Ion mode: POSITIVE
Ionization: ESI
Collision energy: 30eV
Column name: Acquity CSHC18
Retention time: 0.615 min
Base peak: 138.0550
Precursor m/z: 138.0550
Precursor type: [M+H]+
Precursor intensity: 179
m/z	relative intensity
51.8792	13
54.564	12
55.7824	15
55.9348	11
56.3309	14
57.3859	13
62.6671	16
65.0394	20
65.5284	15
65.9366	13
66.033	14
67.055	16
67.3644	12
69.7779	13
72.9119	13
78.0346	20
78.701	19
92.0502	271
93.0578	68
94.0659	675
96.0451	38
109.6678	16
110.0607	281
111.7096	15
111.9472	17
117.8524	18
120.0446	15
120.2771	16
132.8521	17
133.9398	19
137.8368	16
139.0529	56
139.0587	999
143.8774	15
152.5687	17
