Mass spectrum: Vitexin 2''-O-rhamnoside; LC-ESI-QTOF; MS2; CE: 20-40eV;  [M+H]+
Name: Vitexin 2''-O-rhamnoside
Class: Flavonoid C- glycosides
Formula: C27H30O14
Exact mass: 578.1636
SMILES: CC1C(C(C(C(O1)OC2C(C(C(CO)OC2C3=C(C=C(C=4C(C=C(C5=CC=C(C=C5)O)OC43)=O)O)O)O)O)O)O)O
InChI: InChI=1S/C27H30O14/c1-9-19(33)21(35)23(37)27(38-9)41-26-22(36)20(34)16(8-28)40-25(26)18-13(31)6-12(30)17-14(32)7-15(39-24(17)18)10-2-4-11(29)5-3-10/h2-7,9,16,19-23,25-31,33-37H,8H2,1H3
Instrument: Impact II, Bruker; Dionex 3000, Thermo Scientific
Instrument type: LC-ESI-QTOF
Ms type: MS2
Ion mode: POSITIVE
Ionization: ESI
Collision energy: 20-40eV
Column name: Acquity CSHC18
Retention time: 4.510 min
Base peak: 579.1708
Precursor m/z: 579.1708
Precursor type: [M+H]+
Precursor intensity: 64511.75
m/z	relative intensity
295.0795	118
323.0746	526
561.1606	999
