Mass spectrum: 5'-Methylthioadenosine; LC-ESI-ITFT; MS2; CE: 30;  [M-H]-
Name: 5'-Methylthioadenosine
Class: Nucleosides, nucleotides, and analogues; 5'-deoxyribonucleosides; 5'-deoxy-5'-thionucleosides
Formula: C11H15N5O3S
Exact mass: 297.08956
SMILES: CSC[C@H]1O[C@H]([C@H](O)[C@@H]1O)N1C=NC2=C1N=CN=C2N
InChI: InChI=1S/C11H15N5O3S/c1-20-2-5-7(17)8(18)11(19-5)16-4-15-6-9(12)13-3-14-10(6)16/h3-5,7-8,11,17-18H,2H2,1H3,(H2,12,13,14)/t5-,7-,8-,11-/m1/s1
Instrument: Thermo Scientific Q-Exactive Focus
Instrument type: LC-ESI-ITFT
Ms type: MS2
Ion mode: NEGATIVE
Ionization: ESI
Collision energy: 30
Column name: Acquity CSHC18
Retention time: 0.928 min
Base peak: 296.08228
Precursor m/z: 296.08228
Precursor type: [M-H]-
m/z	relative intensity
65.0133	1
92.0241	19
103.9883	2
107.0351	67
108.1635	1
130.9824	1
131.9832	15
131.9856	2
134.0461	999
258.7555	1
