Mass spectrum: XANTHOSINE; LC-ESI-QTOF; MS2; CE: 20;  [M-H]-
Name: XANTHOSINE
Class: NA
Formula: C10H12N4O6
Exact mass: 284.07568
SMILES: OC[C@H]1O[C@H]([C@H](O)[C@@H]1O)N1C=NC2=C1N=C(O)N=C2O
InChI: InChI=1S/C10H12N4O6/c15-1-3-5(16)6(17)9(20-3)14-2-11-4-7(14)12-10(19)13-8(4)18/h2-3,5-6,9,15-17H,1H2,(H2,12,13,18,19)/t3-,5-,6-,9-/m1/s1
Instrument: Agilent 6530Â Q-TOF LC/MS
Instrument type: LC-ESI-QTOF
Ms type: MS2
Ion mode: NEGATIVE
Ionization: ESI
Collision energy: 20
Column name: NA
Retention time: 0.200 min
Base peak: 283.06939
Precursor m/z: 283.06939
Precursor type: [M-H]-
Precursor intensity: 117
m/z	relative intensity
41.9984	97
108.0288	277
151.0465	999
