Mass spectrum: UROCANATE; LC-ESI-QTOF; MS2; CE: 10;  [M-H]-
Name: UROCANATE
Class: NA
Formula: C6H6N2O2
Exact mass: 138.04293
SMILES: OC(=O)\C=C\C1=CNC=N1
InChI: InChI=1S/C6H6N2O2/c9-6(10)2-1-5-3-7-4-8-5/h1-4H,(H,7,8)(H,9,10)/b2-1+
Instrument: Agilent 6530Â Q-TOF LC/MS
Instrument type: LC-ESI-QTOF
Ms type: MS2
Ion mode: NEGATIVE
Ionization: ESI
Collision energy: 10
Column name: NA
Retention time: 0.200 min
Base peak: 137.03660
Precursor m/z: 137.03660
Precursor type: [M-H]-
Precursor intensity: 174
m/z	relative intensity
40.0239	104
65.0198	157
66.041	211
93.0669	218
137.04	999
