Mass spectrum: 16-phenyl tetranor Prostaglandin E1; ESI-TOF; MS2; CE: 6.0000000;  [M+H]+
Name: 16-phenyl tetranor Prostaglandin E1
Class: NA
Formula: C22H30O5
Exact mass: 374.20932
SMILES: OC(=O)CCCCCCC1C(=O)CC(O)[C@@H]1\C=C\C(O)Cc1ccccc1
InChI: InChI=1S/C22H30O5/c23-17(14-16-8-4-3-5-9-16)12-13-19-18(20(24)15-21(19)25)10-6-1-2-7-11-22(26)27/h3-5,8-9,12-13,17-19,21,23,25H,1-2,6-7,10-11,14-15H2,(H,26,27)/b13-12+/t17?,18?,19-,21?/m1/s1
Instrument: waters xevo g2 TOF
Instrument type: ESI-TOF
Ms type: MS2
Ion mode: POSITIVE
Ionization: ESI
Collision energy: 6.0000000
Column name: Acquity CSHC18
Retention time: 3.299 min
Base peak: 375.21732
Precursor m/z: 375.21732
Precursor type: [M+H]+
m/z	relative intensity
143.0862	28
155.0871	4
163.1134	11
167.0859	27
169.1019	17
171.1175	4
179.0858	10
189.0751	7
191.1077	26
194.106	4
198.0806	39
205.1004	14
217.1231	42
223.115	12
233.0873	14
267.1738	11
275.1783	19
293.1904	31
294.196	6
295.1677	48
297.1845	107
298.1884	18
303.1753	70
304.178	11
309.1846	11
311.2004	55
312.2023	11
319.1731	11
321.1846	999
322.1866	256
323.1935	21
337.0727	14
339.1947	653
340.1991	133
341.2063	21
353.2127	26
357.2066	480
358.2105	114
376.1789	41
376.6779	15
