Mass spectrum: Methylmalonic acid; LC-ESI-ITFT; MS2; CE: 60;  [M-H]-
Name: Methylmalonic acid
Class: Organic acids and derivatives; Carboxylic acids and derivatives; Dicarboxylic acids and derivatives
Formula: C4H6O4
Exact mass: 118.02661
SMILES: CC(C(O)=O)C(O)=O
InChI: InChI=1S/C4H6O4/c1-2(3(5)6)4(7)8/h2H,1H3,(H,5,6)(H,7,8)
Instrument: Thermo Scientific Q-Exactive Focus
Instrument type: LC-ESI-ITFT
Ms type: MS2
Ion mode: NEGATIVE
Ionization: ESI
Collision energy: 60
Column name: Acquity CSHC18
Retention time: 1.761 min
Base peak: 117.01933
Precursor m/z: 117.01933
Precursor type: [M-H]-
m/z	relative intensity
55.0177	999
56.5401	325
83.0202	297
104.9421	290
106.0551	299
107.6618	289
108.5842	319
110.3134	338
114.7451	314
120.074	336
