Mass spectrum: D-Tartaric acid; LC-ESI-ITFT; MS2; CE: 30;  [M-H]-
Name: D-Tartaric acid
Class: Organic oxygen compounds; Organooxygen compounds; Carbohydrates and carbohydrate conjugates
Formula: C4H6O6
Exact mass: 150.01644
SMILES: O[C@@H]([C@H](O)C(O)=O)C(O)=O
InChI: InChI=1S/C4H6O6/c5-1(3(7)8)2(6)4(9)10/h1-2,5-6H,(H,7,8)(H,9,10)/t1-,2-/m0/s1
Instrument: Thermo Scientific Q-Exactive Focus
Instrument type: LC-ESI-ITFT
Ms type: MS2
Ion mode: NEGATIVE
Ionization: ESI
Collision energy: 30
Column name: Acquity CSHC18
Retention time: 0.933 min
Base peak: 149.00916
Precursor m/z: 149.00916
Precursor type: [M-H]-
m/z	relative intensity
55.9039	23
59.0127	277
72.9919	999
85.7008	23
87.0076	116
122.1956	22
127.3338	22
154.8693	24
156.4792	28
163.3266	23
