Mass spectrum: gnetin H; LC-ESI-ITFT; MS2; CE: 0.3;  [M-H]-
Name: gnetin H
Class: stilbenes
Formula: C42H32O9
Exact mass: 680.2046
SMILES: C1=CC(=CC=C1C=CC2=C3C(C(OC3=CC4=C2C(C(O4)C5=CC=C(C=C5)O)C6=CC(=CC(=C6)O)O)C7=CC=C(C=C7)O)C8=CC(=CC(=C8)O)O)O
InChI: InChI=1S/C42H32O9/c43-27-8-1-22(2-9-27)3-14-34-39-35(50-41(23-4-10-28(44)11-5-23)37(39)25-15-30(46)19-31(47)16-25)21-36-40(34)38(26-17-32(48)20-33(49)18-26)42(51-36)24-6-12-29(45)13-7-24/h1-21,37-38,41-49H
Instrument: LTQ-Orbitrap XL hybrid mass spectrometer (Thermo Scientific)
Instrument type: LC-ESI-ITFT
Ms type: MS2
Ion mode: NEGATIVE
Ionization: ESI
Collision energy: 0.3
Column name: Acquity CSHC18
Retention time: 8.540 min
Base peak: 679.1954
Precursor m/z: 679.1954
Precursor type: [M-H]-
Precursor intensity: 4656225
m/z	relative intensity
231.3705	2
357.0375	4
423.0882	13
447.0871	84
449.0973	4
451.1174	13
453.132	2
463.1154	5
465.0986	15
467.1142	23
475.1204	3
478.105	6
479.1116	23
481.6698	2
491.1136	37
515.1454	4
541.1658	5
543.1465	9
555.1451	6
557.1574	3
559.1384	9
567.1454	15
569.1611	9
571.1416	6
572.1486	9
573.1542	52
579.0316	4
584.7993	3
584.84	4
584.9252	4
584.969	5
585.0059	3
585.1545	999
585.3498	6
585.522	4
585.5645	2
586.1594	23
591.358	5
595.1735	12
635.2073	13
637.1848	26
651.2086	3
661.1851	56
662.1938	5
