Mass spectrum: Hypotaurine; LC-ESI-ITFT; MS2; CE: 30;  [M-H]-
Name: Hypotaurine
Class: Organic acids and derivatives; Sulfinic acids and derivatives; Sulfinic acids
Formula: C2H7NO2S
Exact mass: 109.01975
SMILES: NCCS(O)=O
InChI: InChI=1S/C2H7NO2S/c3-1-2-6(4)5/h1-3H2,(H,4,5)
Instrument: Thermo Scientific Q-Exactive Focus
Instrument type: LC-ESI-ITFT
Ms type: MS2
Ion mode: NEGATIVE
Ionization: ESI
Collision energy: 30
Column name: Acquity CSHC18
Retention time: 0.926 min
Base peak: 108.01247
Precursor m/z: 108.01247
Precursor type: [M-H]-
m/z	relative intensity
50.7166	1
63.9612	999
64.969	15
67.8074	1
72.4649	1
78.31	1
92.1771	1
101.4473	1
111.7039	1
114.0855	1
