Mass spectrum: 3-METHOXYTYROSINE; LC-ESI-QFT; MS2; CE: 30eV;  [M-H]-
Name: 3-METHOXYTYROSINE
Class: NA
Formula: C10H13NO4
Exact mass: 211.08446
SMILES: COC1=CC(CC(N)C(O)=O)=CC=C1O
InChI: InChI=1S/C10H13NO4/c1-15-9-5-6(2-3-8(9)12)4-7(11)10(13)14/h2-3,5,7,12H,4,11H2,1H3,(H,13,14)
Instrument: Q-Exactive Orbitrap, Thermo Scientfic; Ultimate 3000 HPLC, Thermo Scientfic
Instrument type: LC-ESI-QFT
Ms type: MS2
Ion mode: NEGATIVE
Ionization: ESI
Collision energy: 30eV
Column name: Acquity CSHC18
Retention time: 1.248 min
Base peak: 210.0772
Precursor m/z: 210.0772
Precursor type: [M-H]-
Precursor intensity: 167
m/z	relative intensity
50.4647	1
51.4427	1
52.3217	1
52.9055	1
52.9455	1
54.1535	1
60.1473	1
61.9867	1
69.3011	1
72.0075	162
74.0231	29
74.6469	1
77.0218	1
78.8639	1
79.735	1
87.6818	1
91.7204	1
98.1534	1
103.9432	2
108.0201	10
117.0329	21
117.7985	1
122.0358	1
123.0393	2
123.0436	62
124.0471	6
127.8114	1
134.0358	264
134.0597	4
135.0393	13
135.0437	278
136.0469	16
136.0516	24
137.0593	9
149.0466	1
149.0594	87
150.0546	34
150.0629	7
151.0625	162
152.0659	13
164.0704	6
166.086	12
176.0346	1
177.0423	12
178.0262	2
192.0654	19
193.0496	502
194.0528	45
199.4618	1
210.0763	999
211.0798	87
212.2775	1
222.4179	1
234.074	1
