Mass spectrum: Ceramide (d18:1/16:0); LC-ESI-ITFT; MS2; CE: 60;  [M+H]+
Name: Ceramide (d18:1/16:0)
Class: Lipids and lipid-like molecules; Sphingolipids; Ceramides
Formula: C34H67NO3
Exact mass: 537.51210
SMILES: CCCCCCCCCCCCCCCC(=O)N[C@@H](CO)[C@H](O)\C=C\CCCCCCCCCCCCC
InChI: InChI=1S/C34H67NO3/c1-3-5-7-9-11-13-15-17-19-21-23-25-27-29-33(37)32(31-36)35-34(38)30-28-26-24-22-20-18-16-14-12-10-8-6-4-2/h27,29,32-33,36-37H,3-26,28,30-31H2,1-2H3,(H,35,38)/b29-27+/t32-,33+/m0/s1
Instrument: Thermo Scientific Q-Exactive Focus
Instrument type: LC-ESI-ITFT
Ms type: MS2
Ion mode: POSITIVE
Ionization: ESI
Collision energy: 60
Column name: Acquity CSHC18
Retention time: 1.749 min
Base peak: 538.51935
Precursor m/z: 538.51935
Precursor type: [M+H]+
m/z	relative intensity
56.05	173
57.0704	132
67.0547	180
79.0546	168
81.0702	145
82.0655	999
93.0702	144
95.0858	120
96.081	223
264.2681	833
