Mass spectrum: 16-phenyl tetranor Prostaglandin F2-alpha; ESI-TOF; MS2; CE: 6.0000000;  [M+H]+
Name: 16-phenyl tetranor Prostaglandin F2-alpha
Class: NA
Formula: C22H30O5
Exact mass: 374.20932
SMILES: O[C@@H]1[C@H](C/C=C\CCCC(O)=O)[C@@H](/C=C/[C@@H](O)CC2=CC=CC=C2)[C@H](O)C1
InChI: InChI=1S/C22H30O5/c23-17(14-16-8-4-3-5-9-16)12-13-19-18(20(24)15-21(19)25)10-6-1-2-7-11-22(26)27/h1,3-6,8-9,12-13,17-21,23-25H,2,7,10-11,14-15H2,(H,26,27)/b6-1-,13-12+/t17-,18-,19-,20+,21-/m1/s1
Instrument: waters xevo g2 TOF
Instrument type: ESI-TOF
Ms type: MS2
Ion mode: POSITIVE
Ionization: ESI
Collision energy: 6.0000000
Column name: Acquity CSHC18
Retention time: 3.289 min
Base peak: 375.21732
Precursor m/z: 375.21732
Precursor type: [M+H]+
m/z	relative intensity
107.05	2
117.0713	149
118.0802	1
129.071	5
131.0874	18
141.0698	4
143.0864	21
144.0905	1
157.1017	15
163.0957	2
169.1	7
173.1004	3
180.0699	4
183.1176	7
187.1117	22
189.0754	16
191.0966	8
193.1138	12
199.1122	19
215.1412	3
217.1225	56
219.1254	5
225.1287	9
243.1283	7
249.1598	2
261.1636	11
267.1732	31
268.1827	4
275.179	15
276.1846	4
277.1571	52
278.1613	8
283.1691	28
285.1732	56
286.1761	19
290.2689	7
295.1704	168
296.1733	24
303.1744	236
304.1779	44
305.1886	8
311.1996	18
312.2079	3
319.1706	7
321.1853	999
322.1884	233
323.1962	73
324.2041	11
336.1048	3
338.0978	142
339.1941	741
340.1994	155
355.1875	19
356.1975	3
357.2071	161
358.2093	36
368.0917	4
376.1768	26
