Mass spectrum: Quercetin 3-rutinoside; LC-ESI-QTOF; MS2; CE: 50eV;  [M+H]+
Name: Quercetin 3-rutinoside
Class: Flavonol
Formula: C27H30O16
Exact mass: 610.1534
SMILES: CC1C(C(C(C(O1)OCC2C(C(C(C(O2)OC3=C(OC4=CC(=CC(=C4C3=O)O)O)C5=CC(=C(C=C5)O)O)O)O)O)O)O)O
InChI: InChI=1S/C27H30O16/c1-8-17(32)20(35)22(37)26(40-8)39-7-15-18(33)21(36)23(38)27(42-15)43-25-19(34)16-13(31)5-10(28)6-14(16)41-24(25)9-2-3-11(29)12(30)4-9/h2-6,8,15,17-18,20-23,26-33,35-38H,7H2,1H3
Instrument: TIMS-TOF Pro, Bruker Daltonik; Elute UHPLC System, Bruker Daltonik
Instrument type: LC-ESI-QTOF
Ms type: MS2
Ion mode: POSITIVE
Ionization: ESI
Collision energy: 50eV
Column name: Acquity CSHC18
Retention time: 5.014 min
Base peak: 611.1591
Precursor m/z: 611.1591
Precursor type: [M+H]+
Precursor intensity: 70685.81
m/z	relative intensity
34.9155	1
43.0181	2
55.018	1
69.0331	5
71.0487	17
75.0432	2
85.0283	43
86.0334	2
87.0415	1
97.029	4
109.0101	1
127.0387	3
129.0549	15
137.022	2
145.0499	5
147.0652	31
165.0222	1
176.6396	1
217.0698	1
225.0452	1
259.3328	1
277.7116	2
287.379	1
302.5281	1
302.7103	2
302.956	3
302.9781	7
303.0223	23
303.0472	999
303.3317	1
303.5445	9
303.6938	1
303.7685	1
304.0174	6
304.0534	180
304.9892	1
305.0363	3
305.0557	24
305.6795	1
306.0569	1
345.0175	1
449.1103	1
465.0387	3
465.0729	9
466.1034	19
467.111	3
611.1512	2
