Mass spectrum: FAD; LC-ESI-QTOF; MS2; CE: 60;  [M-H]-
Name: FAD
Class: NA
Formula: C27H33N9O15P2
Exact mass: 785.1571
SMILES: CC1=CC2=C(C=C1C)N(C3=NC(=O)NC(=O)C3=N2)CC(C(C(COP(=O)(O)OP(=O)(O)OCC4C(C(C(O4)N5C=NC6=C(N=CN=C65)N)O)O)O)O)O
InChI: InChI=1S/C27H33N9O15P2/c1-10-3-12-13(4-11(10)2)35(24-18(32-12)25(42)34-27(43)33-24)5-14(37)19(39)15(38)6-48-52(44,45)51-53(46,47)49-7-16-20(40)21(41)26(50-16)36-9-31-17-22(28)29-8-30-23(17)36/h3-4,8-9,14-16,19-21,26,37-41H,5-7H2,1-2H3,(H,44,45)(H,46,47)(H2,28,29,30)(H,34,42,43)
Instrument: impact II
Instrument type: LC-ESI-QTOF
Ms type: MS2
Ion mode: NEGATIVE
Ionization: ESI
Collision energy: 60
Column name: Acquity CSHC18
Retention time: 1.878 min
Base peak: 784.1488
Precursor m/z: 784.1488
Precursor type: [M-H]-
m/z	relative intensity
78.9589	115
96.9697	121
134.0475	138
158.9255	146
162.9804	193
180.991	208
241.0736	240
255.089	943
272.9573	999
346.0561	115
