Mass spectrum: BW 246C; ESI-TOF; MS2; CE: 0.6458333;  [M+H]+
Name: BW 246C
Class: NA
Formula: C19H32N2O5
Exact mass: 368.23112
SMILES: [H]N(C(N(CCC(O)C1CCCCC1)[C@@H]2CCCCCCC(O)=O)=O)C2=O
InChI: InChI=1S/C19H32N2O5/c22-16(14-8-4-3-5-9-14)12-13-21-15(18(25)20-19(21)26)10-6-1-2-7-11-17(23)24/h14-16,22H,1-13H2,(H,23,24)(H,20,25,26)/t15-,16?/m1/s1
Instrument: waters xevo g2 TOF
Instrument type: ESI-TOF
Ms type: MS2
Ion mode: POSITIVE
Ionization: ESI
Collision energy: 0.6458333
Column name: Acquity CSHC18
Retention time: 3.369 min
Base peak: 369.23912
Precursor m/z: 369.23912
Precursor type: [M+H]+
m/z	relative intensity
67.0543	39
81.0698	471
91.0541	102
93.0702	102
95.0863	130
96.0819	26
112.1128	580
113.0357	777
119.0866	45
121.0839	833
123.1182	306
124.1143	190
125.0355	15
126.1292	15
133.103	62
138.0926	48
139.0511	125
140.1081	163
152.1089	131
155.1193	25
165.0673	41
167.0827	266
170.117	83
183.1127	187
193.0963	32
195.1025	60
196.0653	94
197.1284	86
205.0983	126
207.115	36
211.1082	993
212.1122	124
213.1235	97
223.1077	123
225.1254	555
227.1784	15
229.1199	23
241.1185	61
244.2071	268
253.1526	54
267.0629	162
283.0387	771
284.0423	64
315.2064	622
316.2109	110
333.2177	999
334.2205	209
335.0672	15
351.2286	131
