Mass spectrum: NICOTINE; LC-ESI-QTOF; MS2; CE: 20;  [M+H]+
Name: NICOTINE
Class: NA
Formula: C10H14N2
Exact mass: 162.11570
SMILES: [H][C@]1(CCCN1C)C1=CC=CN=C1
InChI: InChI=1S/C10H14N2/c1-12-7-3-5-10(12)9-4-2-6-11-8-9/h2,4,6,8,10H,3,5,7H2,1H3/t10-/m0/s1
Instrument: Agilent 6530Â Q-TOF LC/MS
Instrument type: LC-ESI-QTOF
Ms type: MS2
Ion mode: POSITIVE
Ionization: ESI
Collision energy: 20
Column name: NA
Retention time: 0.200 min
Base peak: 163.11996
Precursor m/z: 163.11996
Precursor type: [M+H]+
Precursor intensity: 86.5
m/z	relative intensity
41.041	23
42.0476	23
44.065	23
45.0462	24
51.0232	24
53.0488	25
63.0179	26
65.0517	26
67.0428	27
69.0615	30
70.0653	30
77.058	31
78.0497	31
79.0631	34
80.2553	35
80.6455	39
80.7279	43
82.0852	52
84.1805	56
84.4911	56
85.0478	57
89.0498	70
90.0695	71
91.0648	83
92.0684	85
93.0747	86
94.0726	89
100.9389	103
103.0718	105
104.0516	128
105.0801	135
106.1086	142
106.3736	145
115.077	159
117.2592	168
117.6811	174
118.0638	176
120.1108	181
128.0579	195
130.31	215
130.7177	353
130.8537	473
131.0881	572
131.492	628
132.1204	697
132.3181	887
132.5198	947
134.0974	999
163.1562	23
