Mass spectrum: Histamine; LC-ESI-ITFT; MS2; CE: 20;  [M+H]+
Name: Histamine
Class: Organic nitrogen compounds; Organonitrogen compounds; Amines
Formula: C5H9N3
Exact mass: 111.07965
SMILES: NCCC1=CNC=N1
InChI: InChI=1S/C5H9N3/c6-2-1-5-3-7-4-8-5/h3-4H,1-2,6H2,(H,7,8)
Instrument: Thermo Scientific Q-Exactive Focus
Instrument type: LC-ESI-ITFT
Ms type: MS2
Ion mode: POSITIVE
Ionization: ESI
Collision energy: 20
Column name: Acquity CSHC18
Retention time: 0.630 min
Base peak: 112.08692
Precursor m/z: 112.08692
Precursor type: [M+H]+
m/z	relative intensity
54.0344	6
56.05	6
67.0421	18
68.0499	350
81.045	5
82.0529	32
83.0607	101
95.0607	999
112.087	11
121.3323	1
