Mass spectrum: L-Methionine; ESI-TOF; MS2; CE: 6.0000000;  [M+H]+
Name: L-Methionine
Class: NA
Formula: C5H11NO2S
Exact mass: 149.05105
SMILES: CSCCC(N)C(O)=O
InChI: InChI=1S/C5H11NO2S/c1-9-3-2-4(6)5(7)8/h4H,2-3,6H2,1H3,(H,7,8)
Instrument: waters xevo g2 TOF
Instrument type: ESI-TOF
Ms type: MS2
Ion mode: POSITIVE
Ionization: ESI
Collision energy: 6.0000000
Column name: Acquity CSHC18
Retention time: 0.589 min
Base peak: 150.05905
Precursor m/z: 150.05905
Precursor type: [M+H]+
m/z	relative intensity
61.0113	2
97.9698	63
98.9645	6
99.9699	27
104.0534	118
104.0537	40
113.9644	171
124.9571	5
126.9715	14
126.9722	19
131.9508	13
131.9514	9
133.0324	371
133.0327	999
134.0354	20
134.0376	63
135.0288	51
139.9638	24
140.9964	26
141.9592	450
142.9625	40
142.9633	8
143.9599	76
149.0281	2
149.961	9
149.9612	7
150.0587	451
150.0589	121
151.0616	9
152.0548	7
152.0553	19
159.9704	11
160.9897	3
163.9756	6
163.9768	4
163.9774	6
172.04	5
191.0232	5
217.1052	5
241.8857	9
246.8627	4
258.888	5
377.0107	1
