Mass spectrum: Prostaglandin D2 methyl ester; ESI-TOF; MS2; CE: 0.6458333;  [M+H]+
Name: Prostaglandin D2 methyl ester
Class: NA
Formula: C21H34O5
Exact mass: 366.24062
SMILES: CCCCCC(O)/C=C/[C@H]1C(=O)CC(O)C1C/C=C\CCCC(=O)OC
InChI: InChI=1S/C21H34O5/c1-3-4-7-10-16(22)13-14-18-17(19(23)15-20(18)24)11-8-5-6-9-12-21(25)26-2/h5,8,13-14,16-19,22-23H,3-4,6-7,9-12,15H2,1-2H3/b8-5-,14-13+/t16?,17?,18-,19?/m1/s1
Instrument: waters xevo g2 TOF
Instrument type: ESI-TOF
Ms type: MS2
Ion mode: POSITIVE
Ionization: ESI
Collision energy: 0.6458333
Column name: Acquity CSHC18
Retention time: 3.954 min
Base peak: 367.24862
Precursor m/z: 367.24862
Precursor type: [M+H]+
m/z	relative intensity
79.0547	262
81.0702	373
91.0552	521
93.0704	354
95.0872	225
105.0712	625
107.086	236
109.1032	128
117.0707	586
119.0861	504
121.0655	179
123.0821	64
129.0706	528
131.0866	812
133.0661	337
135.0811	210
137.0961	34
139.0778	40
141.071	358
142.0786	67
143.0866	602
144.0895	73
145.1021	666
146.1054	63
147.08	320
149.0969	68
154.0765	69
155.0865	513
157.1019	294
158.1043	42
159.0804	409
160.1203	39
161.1141	280
163.0759	100
165.1281	6
167.0847	131
168.0929	49
169.1016	745
171.1169	310
173.0972	513
174.1384	47
175.113	160
181.1025	131
183.0644	317
184.118	78
185.0929	156
187.1307	208
189.1273	195
191.1232	24
194.0975	70
194.5983	6
196.0197	72
197.0792	355
198.0264	58
199.0695	315
201.0576	182
202.1293	40
203.1039	163
203.6012	6
205.1585	6
207.1278	72
209.1532	6
210.1077	6
211.1448	127
213.1581	61
215.1429	159
225.1271	107
229.1232	125
233.1541	171
234.1571	6
235.1316	6
239.1059	227
240.1773	38
243.1382	39
245.1962	6
247.1144	46
253.1938	343
254.1992	57
255.1755	144
257.1899	357
258.1917	43
263.1084	131
265.0705	41
271.2052	435
272.208	6
273.1834	24
275.1963	6
277.1449	28
279.0886	277
281.1898	474
282.1912	98
289.2161	86
290.2184	6
294.0597	62
295.0639	199
296.0588	21
299.201	999
300.2034	185
301.2055	6
303.2322	103
304.2389	6
305.2116	6
307.0602	59
311.1679	63
313.215	73
314.2212	6
314.6623	35
315.1687	43
317.2113	138
318.2135	6
320.0731	39
329.2087	44
331.2265	557
332.2305	138
333.231	6
346.2186	59
349.2381	90
350.2408	6
351.2403	6
355.2054	94
356.2099	134
366.2603	6
368.71	37
