Mass spectrum: Attenoside; LC-ESI-QTOF; MS2; CE: 25eV; [M+NH4]+
Name: Attenoside
Class: Diterpene
Formula: C44H74O21
Exact mass: 938.4720
SMILES: C[C@H]1[C@@H]([C@H]([C@H]([C@@H](O1)O[C@@H]2[C@H](O[C@H]([C@@H]([C@H]2O)O)O[C@@](C)(CC/C=C(\C)/CC/C=C(\C)/CC/C=C(/C)\CO[C@H]3[C@@H]([C@H]([C@@H]([C@H](O3)CO)O)O)O[C@H]4[C@@H]([C@H]([C@@H]([C@H](O4)CO)O)O)O)C=C)CO)O)O)O
InChI: InChI=1S/C44H74O21/c1-7-44(6,65-42-37(57)34(54)38(27(19-47)62-42)63-40-35(55)31(51)28(48)24(5)59-40)16-10-15-22(3)12-8-11-21(2)13-9-14-23(4)20-58-43-39(33(53)30(50)26(18-46)61-43)64-41-36(56)32(52)29(49)25(17-45)60-41/h7,11,14-15,24-43,45-57H,1,8-10,12-13,16-20H2,2-6H3/b21-11+,22-15+,23-14-/t24-,25+,26+,27+,28-,29+,30+,31+,32-,33-,34+,35+,36+,37+,38+,39+,40-,41-,42-,43+,44+/m0/s1
Instrument: Microtof-q MS
Instrument type: LC-ESI-QTOF
Ms type: MS2
Ion mode: POSITIVE
Ionization: ESI
Collision energy: 25eV
Column name: Acquity CSH C18 column (particle size 1.7 μm, column length 2.1 × 50 mm) (Waters)
Retention time: NA
Base peak: 956.5097
Precursor m/z: 956.5097
Precursor type: [M+NH4]+
m/z	relative intensity
145.0502	36
149.1326	29
163.0601	49
163.1475	34
177.1639	43
215.1793	51
271.2420	999
272.2452	199
273.0966	127
289.2526	193
290.2554	38
309.1179	739
310.1207	92
325.1126	273
326.1176	36
327.1284	55
399.2894	31
417.2991	139
418.3018	39
433.2930	49
435.3095	57
451.3047	54
471.1702	455
472.1731	94
489.1800	38
597.3632	50
633.2238	42
759.4163	35
956.5097	159
