Mass spectrum: 4',5,7-Trihydroxyflavanone; LC-ESI-QTOF; MS2; CE: 15.00;  [M+H]+
Name: 4',5,7-Trihydroxyflavanone
Class: NA
Formula: C15H12O5
Exact mass: 272.0685
SMILES: C1C(OC2=CC(=CC(=C2C1=O)O)O)C3=CC=C(C=C3)O
InChI: InChI=1S/C15H12O5/c16-9-3-1-8(2-4-9)13-7-12(19)15-11(18)5-10(17)6-14(15)20-13/h1-6,13,16-18H,7H2
Instrument: Bruker MicrOTOF-Q
Instrument type: LC-ESI-QTOF
Ms type: MS2
Ion mode: POSITIVE
Ionization: ESI
Collision energy: 15.00
Column name: Acquity CSHC18
Retention time: NA
Base peak: 273.0757
Precursor m/z: 273.0757
Precursor type: [M+H]+
m/z	relative intensity
147.0444	18
148.0473	21
153.0186	28
154.0216	175
189.0541	207
273.0765	385
274.0791	999
