Mass spectrum: Hydroxycamalexin-#1 O-Malonylhexoside; LC-ESI-QTOF; MS2; CE: 50eV;  [M+H]+
Name: Hydroxycamalexin-#1 O-Malonylhexoside
Class: Indole
Formula: C20H20N2O9S
Exact mass: 464.0890
SMILES: O[C@@H]1[C@@H](O)[C@@H](O)[C@H](OC2=CC=C(NC=C3C4=NC=CS4)C3=C2)O[C@@H]1COC(CC(O)=O)=O
InChI: InChI=1S/C20H20N2O9S/c23-14(24)6-15(25)29-8-13-16(26)17(27)18(28)20(31-13)30-9-1-2-12-10(5-9)11(7-22-12)19-21-3-4-32-19/h1-5,7,13,16-18,20,22,26-28H,6,8H2,(H,23,24)/t13-,16+,17-,18-,20-/m1/s1
Instrument: TIMS-TOF Pro, Bruker Daltonik; Elute UHPLC System, Bruker Daltonik
Instrument type: LC-ESI-QTOF
Ms type: MS2
Ion mode: POSITIVE
Ionization: ESI
Collision energy: 50eV
Column name: Acquity CSHC18
Retention time: 5.805 min
Base peak: 465.0900
Precursor m/z: 465.0900
Precursor type: [M+H]+
Precursor intensity: 19999.55
m/z	relative intensity
125.0231	14
190.0282	15
217.0401	999
218.0416	76
219.0361	40
219.9176	2
363.065	16
379.0946	42
399.1802	20
421.1019	91
422.102	33
447.0749	16
465.09	372
