Mass spectrum: Cynarin; LC-ESI-QFT; MS2; CE: NCE_15_30_66;  [M-H]-
Name: Cynarin
Class: NA
Formula: C25H24O12
Exact mass: 516.1268
SMILES: C1C(C(C(CC1(C(=O)O)OC(=O)C=CC2=CC(=C(C=C2)O)O)OC(=O)C=CC3=CC(=C(C=C3)O)O)O)O
InChI: InChI=1S/C25H24O12/c26-15-5-1-13(9-17(15)28)3-7-21(31)36-20-12-25(24(34)35,11-19(30)23(20)33)37-22(32)8-4-14-2-6-16(27)18(29)10-14/h1-10,19-20,23,26-30,33H,11-12H2,(H,34,35)
Instrument: Thermo_Qexactive_Plus
Instrument type: LC-ESI-QFT
Ms type: MS2
Ion mode: NEGATIVE
Ionization: ESI
Collision energy: NCE_15_30_66
Column name: Acquity CSHC18
Retention time: 3.831 min
Base peak: 515.1203
Precursor m/z: 515.1203
Precursor type: [M-H]-
Precursor intensity: 510288400
m/z	relative intensity
54.309	11
70.8231	12
71.6926	12
93.0332	12
94.2199	14
109.6036	14
111.0436	15
135.0445	17
136.0481	18
143.0342	19
155.0333	20
161.0228	25
173.0448	26
179.0342	41
180.0373	48
191.0562	56
192.0593	67
203.0336	67
214.7861	69
335.0848	125
336.0788	135
353.0969	260
354.0931	334
447.6767	527
514.0051	822
515.1179	999
