Mass spectrum: Prostaglandin E1 Ethanolamide; ESI-TOF; MS2; CE: 0.6458333;  [M+H]+
Name: Prostaglandin E1 Ethanolamide
Class: NA
Formula: C22H39NO5
Exact mass: 397.28282
SMILES: CCCCCC(O)/C=C/[C@H]1C(O)CC(=O)C1CCCCCCC(=O)NCCO
InChI: InChI=1S/C22H39NO5/c1-2-3-6-9-17(25)12-13-19-18(20(26)16-21(19)27)10-7-4-5-8-11-22(28)23-14-15-24/h12-13,17-19,21,24-25,27H,2-11,14-16H2,1H3,(H,23,28)/b13-12+/t17?,18?,19-,21?/m1/s1
Instrument: waters xevo g2 TOF
Instrument type: ESI-TOF
Ms type: MS2
Ion mode: POSITIVE
Ionization: ESI
Collision energy: 0.6458333
Column name: Acquity CSHC18
Retention time: 3.216 min
Base peak: 398.29082
Precursor m/z: 398.29082
Precursor type: [M+H]+
m/z	relative intensity
62.0595	242
79.0537	16
81.0703	55
83.0849	14
93.0709	94
95.0866	92
105.0699	67
107.0863	62
109.1014	86
113.9651	2
117.071	50
119.0845	48
123.1176	2
129.0691	24
131.0865	74
133.1019	64
135.1162	62
143.0853	22
145.1018	58
147.0805	50
149.1347	34
152.1079	22
161.1335	60
163.1482	37
173.1326	63
177.1262	29
180.1346	2
185.1346	46
187.111	35
187.6045	2
189.1287	17
196.1327	17
199.6033	2
200.611	2
201.1138	2
203.1433	92
208.6101	2
209.6178	2
210.1186	2
229.1952	49
230.248	2
234.15	13
241.1959	33
247.2047	36
255.2119	14
257.1894	22
265.1948	24
273.2216	58
275.1989	43
283.2049	80
290.2582	83
296.1187	2
299.201	14
300.2284	22
301.2176	418
302.2193	68
308.1738	42
309.2635	2
310.2732	63
318.2434	192
320.1663	27
334.272	41
336.2535	97
337.2565	2
342.244	30
344.2583	999
345.2587	251
346.2685	13
360.2524	23
361.2576	2
362.2691	718
363.2242	101
378.2648	2
379.2673	2
380.2802	215
381.2832	2
382.2861	2
383.286	2
398.293	2
399.2561	13
400.2134	58
