Mass spectrum: Homocitrulline; ESI-TOF; MS2; CE: 0.6458333;  [M+H]+
Name: Homocitrulline
Class: NA
Formula: C7H15N3O3
Exact mass: 189.11134
SMILES: NC(CCCCNC(N)=O)C(O)=O
InChI: InChI=1S/C7H15N3O3/c8-5(6(11)12)3-1-2-4-10-7(9)13/h5H,1-4,8H2,(H,11,12)(H3,9,10,13)
Instrument: waters xevo g2 TOF
Instrument type: ESI-TOF
Ms type: MS2
Ion mode: POSITIVE
Ionization: ESI
Collision energy: 0.6458333
Column name: Acquity CSHC18
Retention time: 0.544 min
Base peak: 190.11934
Precursor m/z: 190.11934
Precursor type: [M+H]+
m/z	relative intensity
56.0506	14
67.0552	47
72.938	8
82.0658	187
84.0815	999
85.085	56
92.0517	6
96.0453	3
98.0607	164
99.0644	5
100.023	235
101.0798	20
110.0149	83
114.9708	4
115.9643	3
127.0872	502
128.0715	56
129.1017	3
130.087	19
143.9596	2
147.1139	2
160.9901	2
167.0792	12
170.0108	7
173.0923	82
173.9806	8
190.1189	43
