Mass spectrum: ursolic acid; LC-ESI-ITFT; MS2; CE: 0.3;  [M-H]-
Name: ursolic acid
Class: triterpenes
Formula: C30H48O3
Exact mass: 456.3603
SMILES: CC1CCC2(CCC3(C(=CCC4C3(CCC5C4(CCC(C5(C)C)O)C)C)C2C1C)C)C(=O)O
InChI: InChI=1S/C30H48O3/c1-18-10-15-30(25(32)33)17-16-28(6)20(24(30)19(18)2)8-9-22-27(5)13-12-23(31)26(3,4)21(27)11-14-29(22,28)7/h8,18-19,21-24,31H,9-17H2,1-7H3,(H,32,33)
Instrument: LTQ-Orbitrap XL hybrid mass spectrometer (Thermo Scientific)
Instrument type: LC-ESI-ITFT
Ms type: MS2
Ion mode: NEGATIVE
Ionization: ESI
Collision energy: 0.3
Column name: Acquity CSHC18
Retention time: 17.588 min
Base peak: 455.3524
Precursor m/z: 455.3524
Precursor type: [M-H]-
Precursor intensity: 8639504
m/z	relative intensity
118.7443	10
124.1954	9
128.6579	11
136.7923	9
136.9126	10
137.1023	9
141.2575	9
153.6733	11
160.0763	10
161.3752	10
184.2738	13
194.4955	11
194.5029	9
194.5161	9
196.041	13
196.1204	33
196.2002	14
200.1648	11
203.8576	14
207.018	8
225.8196	10
262.363	9
282.6845	8
287.2263	58
287.2346	24
287.2476	20
323.791	13
351.5591	10
405.3142	12
407.3309	473
408.334	37
409.3453	10
450.7567	13
452.1421	23
453.5431	33
454.102	13
455.3523	999
