Mass spectrum: L-kynurenine; LC-ESI-ITFT; MS2; CE: 0.3;  [M-H]-
Name: L-kynurenine
Class: tryptophan metabolite
Formula: C10H12N2O3
Exact mass: 208.0848
SMILES: C1=CC=C(C(=C1)C(=O)CC(C(=O)O)N)N
InChI: InChI=1S/C10H12N2O3/c11-7-4-2-1-3-6(7)9(13)5-8(12)10(14)15/h1-4,8H,5,11-12H2,(H,14,15)
Instrument: LTQ-Orbitrap XL hybrid mass spectrometer (Thermo Scientific)
Instrument type: LC-ESI-ITFT
Ms type: MS2
Ion mode: NEGATIVE
Ionization: ESI
Collision energy: 0.3
Column name: Acquity CSHC18
Retention time: 0.954 min
Base peak: 207.0775
Precursor m/z: 207.0775
Precursor type: [M-H]-
Precursor intensity: 4470552
m/z	relative intensity
50.0977	3
72.0099	2
72.9214	2
80.4763	1
81.6523	1
82.9165	1
89.5021	1
103.1229	2
134.4556	1
144.0455	2
146.0616	38
161.1304	2
161.136	3
167.7579	2
172.0407	10
188.54	2
188.9163	7
189.2932	5
189.302	1
189.4443	4
190.0303	3
190.0319	2
190.0343	4
190.0358	3
190.0382	6
190.0401	5
190.042	5
190.0438	5
190.0513	999
190.0579	5
190.06	7
190.0638	4
190.0659	5
190.0678	4
190.0698	4
190.0738	3
190.0755	2
190.0878	1
190.0891	1
190.6606	4
190.814	6
191.1962	6
191.5805	3
194.4877	1
194.4957	2
194.5136	1
194.5254	1
196.0941	5
