Mass spectrum: (-)-epicatechin gallate; LC-ESI-ITFT; MS2; CE: 0.3;  [M+H]+
Name: (-)-epicatechin gallate
Class: flavanols
Formula: C22H18O10
Exact mass: 442.0900
SMILES: C1C(C(OC2=CC(=CC(=C21)O)O)C3=CC(=C(C=C3)O)O)OC(=O)C4=CC(=C(C(=C4)O)O)O
InChI: InChI=1S/C22H18O10/c23-11-6-14(25)12-8-19(32-22(30)10-4-16(27)20(29)17(28)5-10)21(31-18(12)7-11)9-1-2-13(24)15(26)3-9/h1-7,19,21,23-29H,8H2
Instrument: LTQ-Orbitrap XL hybrid mass spectrometer (Thermo Scientific)
Instrument type: LC-ESI-ITFT
Ms type: MS2
Ion mode: POSITIVE
Ionization: ESI
Collision energy: 0.3
Column name: Acquity CSHC18
Retention time: 7.099 min
Base peak: 443.0986
Precursor m/z: 443.0986
Precursor type: [M+H]+
Precursor intensity: 10216010
m/z	relative intensity
111.8654	2
115.2485	4
118.7222	2
122.1894	3
123.0442	83
123.534	3
126.1152	3
130.2495	3
132.3932	3
139.0393	54
140.3086	3
141.2816	3
141.6055	3
142.7695	3
146.9293	3
147.0444	24
148.0097	3
151.0394	138
153.0186	24
160.0385	3
163.0392	3
165.0551	17
167.6571	4
178.412	3
181.7478	3
181.8853	3
189.0559	5
194.5499	4
196.1258	12
196.2054	4
197.583	4
204.0719	3
215.2813	3
231.0662	14
245.8601	3
249.5858	3
255.0664	18
271.1236	6
271.7739	3
273.0577	5
273.0769	999
273.0919	5
273.7319	3
274.0802	54
274.126	3
274.39	8
275.0497	11
275.0568	7
276.1115	3
276.3788	4
287.3527	25
287.3631	6
291.0876	117
292.0908	9
300.6616	3
315.0513	9
317.0669	44
325.107	3
332.2051	2
346.5614	2
351.6031	3
378.1359	2
425.0889	8
