Mass spectrum: Myo-Inositol; LC-ESI-QTOF; MS2; CE: 21.23;  [2M+Na]+
Name: Myo-Inositol
Class: NA
Formula: C6H12O6
Exact mass: 180.0634
SMILES: C1(C(C(C(C(C1O)O)O)O)O)O
InChI: InChI=1S/C6H12O6/c7-1-2(8)4(10)6(12)5(11)3(1)9/h1-12H
Instrument: Bruker MicrOTOF-Q
Instrument type: LC-ESI-QTOF
Ms type: MS2
Ion mode: POSITIVE
Ionization: ESI
Collision energy: 21.23
Column name: Acquity CSHC18
Retention time: NA
Base peak: 383.1160
Precursor m/z: 383.1160
Precursor type: [2M+Na]+
m/z	relative intensity
169.0063	4
182.5324	1
187.0195	2
200.0442	59
200.5454	46
201.0438	25
202.0399	10
202.9506	1
203.0525	999
203.3478	2
204.056	85
205.056	16
209.0505	2
209.5528	3
210.0536	2
219.014	3
223.0394	25
227.0153	1
229.0292	1
265.0487	22
277.0467	3
290.5808	1
307.0615	3
331.0613	2
367.0798	3
385.0915	92
386.0892	5
