Mass spectrum: 3,5-DIIODO-L-TYROSINE; LC-ESI-QTOF; MS2; CE: 40;  [M-H]-
Name: 3,5-DIIODO-L-TYROSINE
Class: NA
Formula: C9H9I2NO3
Exact mass: 432.86719
SMILES: [H][C@](N)(CC1=CC(I)=C(O)C(I)=C1)C(O)=O
InChI: InChI=1S/C9H9I2NO3/c10-5-1-4(2-6(11)8(5)13)3-7(12)9(14)15/h1-2,7,13H,3,12H2,(H,14,15)/t7-/m0/s1
Instrument: Agilent 6530Â Q-TOF LC/MS
Instrument type: LC-ESI-QTOF
Ms type: MS2
Ion mode: NEGATIVE
Ionization: ESI
Collision energy: 40
Column name: NA
Retention time: 0.200 min
Base peak: 431.85676
Precursor m/z: 431.85676
Precursor type: [M-H]-
Precursor intensity: 176
m/z	relative intensity
126.9212	999
