Mass spectrum: Nicotianoside IX; LC-ESI-QTOF; MS2; CE: 14.8eV;  [M+NH4]+
Name: Nicotianoside IX
Class: Diterpene
Formula: C35H56O15
Exact mass: 716.3619
SMILES: O[C@@H]1[C@@H](O)[C@H](O)[C@@H](CO)O[C@H]1O[C@](C)(C=C)CC\C=C(/C)CC\C=C(/C)CC\C=C(\C)CO[C@@H]1O[C@H](COC(=O)CC(=O)O)[C@@H](O)[C@H](O)[C@H]1O
InChI: InChI=1S/C35H56O15/c1-6-35(5,50-34-32(45)29(42)27(40)23(17-36)48-34)15-9-14-21(3)11-7-10-20(2)12-8-13-22(4)18-47-33-31(44)30(43)28(41)24(49-33)19-46-26(39)16-25(37)38/h6,10,13-14,23-24,27-34,36,40-45H,1,7-9,11-12,15-19H2,2-5H3,(H,37,38)/b20-10+,21-14+,22-13-/t23-,24-,27-,28-,29+,30+,31-,32-,33-,34+,35-/m1/s1
Instrument: Impact II qTOF
Instrument type: LC-ESI-QTOF
Ms type: MS2
Ion mode: POSITIVE
Ionization: ESI
Collision energy: 14.8eV
Column name: Acquity CSH C18 column (particle size 1.7 μm, column length 2.1 × 50 mm) (Waters)
Retention time: 21.7 min
Base peak: 734.3957
Precursor m/z: 734.3957
Precursor type: [M+NH4]+
m/z	relative intensity
95.0861	9
105.0188	12
107.0864	6
109.1021	16
119.0861	14
121.1014	16
123.1174	8
127.0396	23
133.1018	6
135.1175	13
145.05	34
147.117	7
149.133	24
161.1332	20
163.1491	30
175.1483	17
177.164	27
189.1643	17
191.1802	9
201.164	9
203.1797	15
215.18	37
231.0506	54
231.211	6
249.061	93
250.0651	8
267.0717	9
271.2423	652
272.2461	140
273.2568	27
289.2532	73
290.2573	16
375.0934	7
393.1029	11
411.1146	42
412.1165	5
433.2949	11
501.2843	8
519.296	23
520.2979	7
537.3066	73
538.3098	19
554.3321	12
734.3957	999
