Mass spectrum: Sinapyl alcohol; LC-ESI-QTOF; MS2; CE: 15.00;  [M+3H]+
Name: Sinapyl alcohol
Class: NA
Formula: C11H14O4
Exact mass: 210.0892
SMILES: COC1=CC(=CC(=C1O)OC)C=CCO
InChI: InChI=1S/C11H14O4/c1-14-9-6-8(4-3-5-12)7-10(15-2)11(9)13/h3-4,6-7,12-13H,5H2,1-2H3
Instrument: Bruker MicrOTOF-Q
Instrument type: LC-ESI-QTOF
Ms type: MS2
Ion mode: POSITIVE
Ionization: ESI
Collision energy: 15.00
Column name: Acquity CSHC18
Retention time: NA
Base peak: 213.1121
Precursor m/z: 213.1121
Precursor type: [M+3H]+
m/z	relative intensity
115.0528	7
120.0551	6
121.064	5
123.0425	11
124.0531	6
131.0509	12
134.0509	4
135.0793	78
136.0797	13
137.0596	11
152.054	10
153.0568	5
154.0623	26
163.0761	112
164.082	11
165.053	10
167.0712	999
167.2934	4
168.0749	98
180.0771	67
181.0786	6
195.1025	78
196.1026	10
