Mass spectrum: ADENOSINE; LC-ESI-QTOF; MS2; CE: 10;  [M+H]+
Name: ADENOSINE
Class: NA
Formula: C10H13N5O4
Exact mass: 267.09675
SMILES: NC1=NC=NC2=C1N=CN2[C@@H]1O[C@H](CO)[C@@H](O)[C@H]1O
InChI: InChI=1S/C10H13N5O4/c11-8-5-9(13-2-12-8)15(3-14-5)10-7(18)6(17)4(1-16)19-10/h2-4,6-7,10,16-18H,1H2,(H2,11,12,13)/t4-,6-,7-,10-/m1/s1
Instrument: Agilent 6530Â Q-TOF LC/MS
Instrument type: LC-ESI-QTOF
Ms type: MS2
Ion mode: POSITIVE
Ionization: ESI
Collision energy: 10
Column name: NA
Retention time: 0.200 min
Base peak: 268.10238
Precursor m/z: 268.10238
Precursor type: [M+H]+
Precursor intensity: 159.5
m/z	relative intensity
40.9983	14
43.027	15
45.031	15
49.0312	15
55.0375	16
57.054	16
59.0583	16
61.0367	16
69.0498	16
71.0186	17
73.0468	17
82.0413	18
85.0507	20
87.0549	23
92.0329	23
94.045	23
97.042	23
103.0546	24
109.0504	25
115.065	25
119.0612	27
133.0775	28
134.0479	36
135.055	40
135.3266	41
135.4549	41
135.545	42
135.7219	44
135.8739	55
137.0914	59
138.7565	70
178.0838	87
202.0765	115
232.0767	121
250.1068	125
268.8019	131
269.7048	136
269.96	142
270.2132	162
270.3546	567
270.4771	999
