Mass spectrum: BENZALDEHYDE; LC-ESI-QFT; MS2; CE: 30eV;  [M+H]+
Name: BENZALDEHYDE
Class: NA
Formula: C7H6O
Exact mass: 106.04186
SMILES: O=CC1=CC=CC=C1
InChI: InChI=1S/C7H6O/c8-6-7-4-2-1-3-5-7/h1-6H
Instrument: Q-Exactive Orbitrap, Thermo Scientfic; Ultimate 3000 HPLC, Thermo Scientfic
Instrument type: LC-ESI-QFT
Ms type: MS2
Ion mode: POSITIVE
Ionization: ESI
Collision energy: 30eV
Column name: Acquity CSHC18
Retention time: 14.909 min
Base peak: 107.0491
Precursor m/z: 107.0491
Precursor type: [M+H]+
Precursor intensity: 142
m/z	relative intensity
52.4375	1
55.4007	2
58.2987	2
59.1672	1
59.6849	1
59.8916	1
63.8613	1
63.9635	2
65.0393	5
66.0345	17
70.3505	2
74.0915	2
77.0391	15
79.0548	999
79.3373	2
80.0582	29
91.0548	162
92.043	2
92.0582	3
92.0626	3
93.0704	5
95.0497	59
100.8405	2
105.0452	49
105.0704	69
107.0496	123
107.0609	3
107.086	162
108.0447	12
108.0529	3
109.0652	41
116.7714	2
118.2533	2
119.0607	50
128.9324	2
