Mass spectrum: Luteolin 4'-glucoside; LC-ESI-QTOF; MS2; CE: 50eV;  [M-H]-
Name: Luteolin 4'-glucoside
Class: Flavone
Formula: C21H20O11
Exact mass: 448.1006
SMILES: C1=CC(=C(C=C1C2=CC(=O)C3=C(C=C(C=C3O2)O)O)O)OC4C(C(C(C(O4)CO)O)O)O
InChI: InChI=1S/C21H20O11/c22-7-16-18(27)19(28)20(29)21(32-16)31-13-2-1-8(3-10(13)24)14-6-12(26)17-11(25)4-9(23)5-15(17)30-14/h1-6,16,18-25,27-29H,7H2
Instrument: TIMS-TOF Pro, Bruker Daltonik; Elute UHPLC System, Bruker Daltonik
Instrument type: LC-ESI-QTOF
Ms type: MS2
Ion mode: NEGATIVE
Ionization: ESI
Collision energy: 50eV
Column name: Acquity CSHC18
Retention time: 5.626 min
Base peak: 447.0901
Precursor m/z: 447.0901
Precursor type: [M-H]-
Precursor intensity: 326896.3
m/z	relative intensity
41.0045	3
56.8871	1
63.023	3
75.7982	1
79.699	1
83.0111	5
84.6801	2
87.044	1
94.1181	1
100.7742	1
105.0317	2
105.6564	1
106.2845	1
107.0124	15
107.4385	1
108.0195	1
123.0056	1
132.0204	4
133.0278	98
133.268	1
133.3863	1
134.0299	6
139.4745	1
142.3456	1
142.9294	1
144.1894	1
145.3543	1
147.0453	1
149.0213	12
149.6108	2
150.2615	1
151.0007	61
152.0041	5
153.1473	1
157.0648	1
160.7497	1
163.1153	1
167.182	1
170.0339	1
171.0532	1
175.0375	18
175.9043	3
177.6212	1
179.2134	1
182.9668	1
189.9661	1
194.687	1
197.8546	3
199.034	3
200.0474	1
201.0187	2
215.0345	1
217.0508	3
218.0531	1
219.4804	1
221.2616	1
225.565	1
229.0475	1
241.0437	2
243.0232	1
249.3863	2
262.7168	2
281.0404	1
284.0299	2
284.4605	1
284.7052	1
284.9121	2
285.0379	999
285.2985	2
285.5858	4
285.8482	2
286.0397	236
286.1384	1
286.3038	1
286.4558	1
286.6146	1
287.0432	13
287.1447	1
287.8104	1
389.0805	1
447.0834	128
