Mass spectrum: 16-phenyl tetranor Prostaglandin F2-alpha; ESI-TOF; MS2; CE: 0.6458333;  [M+H]+
Name: 16-phenyl tetranor Prostaglandin F2-alpha
Class: NA
Formula: C22H30O5
Exact mass: 374.20932
SMILES: O[C@@H]1[C@H](C/C=C\CCCC(O)=O)[C@@H](/C=C/[C@@H](O)CC2=CC=CC=C2)[C@H](O)C1
InChI: InChI=1S/C22H30O5/c23-17(14-16-8-4-3-5-9-16)12-13-19-18(20(24)15-21(19)25)10-6-1-2-7-11-22(26)27/h1,3-6,8-9,12-13,17-21,23-25H,2,7,10-11,14-15H2,(H,26,27)/b6-1-,13-12+/t17-,18-,19-,20+,21-/m1/s1
Instrument: waters xevo g2 TOF
Instrument type: ESI-TOF
Ms type: MS2
Ion mode: POSITIVE
Ionization: ESI
Collision energy: 0.6458333
Column name: Acquity CSHC18
Retention time: 3.289 min
Base peak: 375.21732
Precursor m/z: 375.21732
Precursor type: [M+H]+
m/z	relative intensity
79.0549	78
88.0742	21
91.0555	874
92.0579	61
93.0713	87
97.0655	24
105.0714	261
107.05	35
115.0553	74
117.0713	999
118.0802	82
121.1024	52
128.0639	84
129.071	416
131.0874	386
132.0909	17
133.102	48
141.0698	301
142.0779	43
143.0864	368
144.0905	20
145.1024	143
147.0812	55
155.0872	239
157.1017	256
158.1062	29
161.0952	43
163.0957	4
165.0716	62
167.0871	277
168.0908	37
169.1	238
171.118	153
178.0784	65
181.101	235
182.1064	34
183.1176	103
185.0983	57
187.1117	75
191.0966	34
192.0941	36
193.1138	179
194.1089	44
195.1168	86
197.0941	27
199.1122	143
200.1136	12
203.1045	13
205.1034	85
206.1099	24
207.1177	185
209.1345	32
211.1108	37
219.1254	81
221.1342	75
223.1269	11
225.1287	31
229.1023	33
230.1323	28
233.1335	46
243.1283	23
245.1277	11
249.1598	31
256.2578	15
257.1327	76
259.1503	106
261.1636	126
267.1732	8
275.1391	16
277.1571	45
285.1732	169
286.1761	28
287.1754	10
295.1704	44
303.1744	239
304.1779	38
321.1853	401
322.1884	77
323.1962	28
338.0978	217
339.1495	51
351.1267	524
365.101	23
367.0982	20
369.1012	26
