Mass spectrum: C16-02:0 DG; ESI-TOF; MS2; CE: 6.0000000;  [M+H]+
Name: C16-02:0 DG
Class: NA
Formula: C21H42O4
Exact mass: 358.30831
SMILES: [H]OC([H])([H])C([H])(OC(=O)C([H])([H])[H])C([H])([H])OC([H])([H])C([H])([H])C([H])([H])C([H])([H])C([H])([H])C([H])([H])C([H])([H])C([H])([H])C([H])([H])C([H])([H])C([H])([H])C([H])([H])C([H])([H])C([H])([H])C([H])([H])C([H])([H])[H]
InChI: InChI=1S/C21H42O4/c1-3-4-5-6-7-8-9-10-11-12-13-14-15-16-17-24-19-21(18-22)25-20(2)23/h21-22H,3-19H2,1-2H3
Instrument: waters xevo g2 TOF
Instrument type: ESI-TOF
Ms type: MS2
Ion mode: POSITIVE
Ionization: ESI
Collision energy: 6.0000000
Column name: Acquity CSHC18
Retention time: 8.615 min
Base peak: 359.31631
Precursor m/z: 359.31631
Precursor type: [M+H]+
m/z	relative intensity
71.0862	2
117.0552	194
118.059	10
178.1306	112
178.6326	27
179.1331	4
187.1354	10
194.144	5
198.6443	18
199.1359	79
199.6375	25
219.6492	7
281.2156	1
299.2948	16
317.3054	9
332.2917	4
341.3058	999
342.3087	247
343.3132	34
355.2527	18
359.3152	17
