Mass spectrum: 5'-DEOXYADENOSINE; LC-ESI-QFT; MS2; CE: 30eV;  [M+H]+
Name: 5'-DEOXYADENOSINE
Class: NA
Formula: C10H13N5O3
Exact mass: 251.10184
SMILES: C[C@H]1O[C@H]([C@H](O)[C@@H]1O)N1C=NC2=C(N)N=CN=C12
InChI: InChI=1S/C10H13N5O3/c1-4-6(16)7(17)10(18-4)15-3-14-5-8(11)12-2-13-9(5)15/h2-4,6-7,10,16-17H,1H3,(H2,11,12,13)/t4-,6-,7-,10-/m1/s1
Instrument: Q-Exactive Orbitrap, Thermo Scientfic; Ultimate 3000 HPLC, Thermo Scientfic
Instrument type: LC-ESI-QFT
Ms type: MS2
Ion mode: POSITIVE
Ionization: ESI
Collision energy: 30eV
Column name: Acquity CSHC18
Retention time: 2.154 min
Base peak: 252.1091
Precursor m/z: 252.1091
Precursor type: [M+H]+
Precursor intensity: 123
m/z	relative intensity
50.2634	6
52.5877	6
55.016	8
57.0344	13
57.2504	6
60.4704	8
70.8542	7
71.0498	25
73.0292	534
73.9908	7
74.0326	12
74.9195	8
78.8638	6
84.9073	7
99.0447	42
117.0552	323
117.544	8
119.0354	38
137.0461	11
137.0593	372
137.0655	999
152.2798	8
244.0799	8
252.1097	977
253.1138	60
256.7986	10
