Mass spectrum: PHENYLACETATE; LC-ESI-QFT; MS2; CE: 30eV;  [M+H]+
Name: PHENYLACETATE
Class: NA
Formula: C8H8O2
Exact mass: 136.05243
SMILES: OC(=O)CC1=CC=CC=C1
InChI: InChI=1S/C8H8O2/c9-8(10)6-7-4-2-1-3-5-7/h1-5H,6H2,(H,9,10)
Instrument: Q-Exactive Orbitrap, Thermo Scientfic; Ultimate 3000 HPLC, Thermo Scientfic
Instrument type: LC-ESI-QFT
Ms type: MS2
Ion mode: POSITIVE
Ionization: ESI
Collision energy: 30eV
Column name: Acquity CSHC18
Retention time: 3.111 min
Base peak: 137.0597
Precursor m/z: 137.0597
Precursor type: [M+H]+
Precursor intensity: 133
m/z	relative intensity
51.9984	5
52.4981	6
55.9351	13
56.7333	5
63.7908	5
65.0392	8
65.1832	6
66.8554	6
67.055	8
69.2126	6
72.9378	7
74.9535	10
75.4925	6
80.5407	6
81.0704	120
84.3982	6
84.8678	6
90.9482	50
91.0547	999
92.058	31
93.0703	16
95.0497	55
95.0861	76
101.9534	6
107.0495	8
109.065	66
118.9428	14
119.0494	497
120.0527	26
136.0216	53
136.1118	9
136.9532	30
137.0249	35
137.0598	102
137.0963	14
137.1326	26
138.0551	12
144.8339	6
152.5538	7
