Mass spectrum: N-ACETYLMANNOSAMINE; LC-ESI-QTOF; MS2; CE: 10;  [M-H]-
Name: N-ACETYLMANNOSAMINE
Class: NA
Formula: C8H15NO6
Exact mass: 221.08994
SMILES: [H][C@@]1(O)O[C@H](CO)[C@@H](O)[C@H](O)[C@@H]1NC(C)=O
InChI: InChI=1S/C8H15NO6/c1-3(11)9-5-7(13)6(12)4(2-10)15-8(5)14/h4-8,10,12-14H,2H2,1H3,(H,9,11)/t4-,5+,6-,7-,8-/m1/s1
Instrument: Agilent 6530Â Q-TOF LC/MS
Instrument type: LC-ESI-QTOF
Ms type: MS2
Ion mode: NEGATIVE
Ionization: ESI
Collision energy: 10
Column name: NA
Retention time: 0.200 min
Base peak: 220.08158
Precursor m/z: 220.08158
Precursor type: [M-H]-
Precursor intensity: 124
m/z	relative intensity
58.0367	101
59.0326	166
73.0289	218
89.0341	232
100.0552	282
101.0326	363
119.045	999
