Mass spectrum: trans-ferulic acid; LC-ESI-QTOF; MS2; CE: 15.00;  [M-CH3-H]-
Name: trans-ferulic acid
Class: NA
Formula: C10H10O4
Exact mass: 194.0579
SMILES: COC1=C(C=CC(=C1)C=CC(=O)O)O
InChI: InChI=1S/C10H10O4/c1-14-9-6-7(2-4-8(9)11)3-5-10(12)13/h2-6,11H,1H3,(H,12,13)
Instrument: Bruker MicrOTOF-Q
Instrument type: LC-ESI-QTOF
Ms type: MS2
Ion mode: NEGATIVE
Ionization: ESI
Collision energy: 15.00
Column name: Acquity CSHC18
Retention time: NA
Base peak: 178.0272
Precursor m/z: 178.0272
Precursor type: [M-CH3-H]-
m/z	relative intensity
48.72	47
48.804	36
58.4994	105
67.5135	73
68.9652	40
70.1332	47
75.5357	42
83.5087	75
86.4152	53
89.0483	49
93.2296	88
97.2883	46
105.0364	47
106.2871	77
116.542	51
127.1429	44
128.022	51
131.6456	40
132.3843	47
133.0269	999
134.0323	551
134.2021	40
155.1717	64
163.2226	51
163.5518	36
193.7231	94
209.8088	38
284.6126	36
370.8324	36
372.1762	38
392.762	42
410.7427	36
425.0283	53
425.5329	66
480.4569	36
482.1469	49
554.2822	36
571.5825	38
597.9886	53
601.4737	55
604.8348	47
607.4796	36
610.336	51
734.5653	46
834.3389	38
854.732	58
865.3568	36
873.6397	44
