Mass spectrum: Ascorbic acid; LC-ESI-QTOF; MS2; CE: 30;  [M-H]-
Name: Ascorbic acid
Class: NA
Formula: C6H8O6
Exact mass: 176.0321
SMILES: C(C(C1C(=C(C(=O)O1)O)O)O)O
InChI: InChI=1S/C6H8O6/c7-1-2(8)5-3(9)4(10)6(11)12-5/h2,5,7-10H,1H2
Instrument: impact II
Instrument type: LC-ESI-QTOF
Ms type: MS2
Ion mode: NEGATIVE
Ionization: ESI
Collision energy: 30
Column name: Acquity CSHC18
Retention time: 1.941 min
Base peak: 175.0250
Precursor m/z: 175.0250
Precursor type: [M-H]-
m/z	relative intensity
87.0088	999
88.0118	34
115.0032	55
