Mass spectrum: D-SEDOHEPTULOSE; LC-ESI-QTOF; MS2; CE: 20;  [M-H]-
Name: D-SEDOHEPTULOSE
Class: NA
Formula: C7H14O7
Exact mass: 210.07395
SMILES: OC[C@H]1O[C@](O)(CO)[C@@H](O)[C@H](O)[C@@H]1O
InChI: InChI=1S/C7H14O7/c8-1-3-4(10)5(11)6(12)7(13,2-9)14-3/h3-6,8-13H,1-2H2/t3-,4-,5-,6+,7-/m1/s1
Instrument: Agilent 6530Â Q-TOF LC/MS
Instrument type: LC-ESI-QTOF
Ms type: MS2
Ion mode: NEGATIVE
Ionization: ESI
Collision energy: 20
Column name: NA
Retention time: 0.200 min
Base peak: 209.06857
Precursor m/z: 209.06857
Precursor type: [M-H]-
Precursor intensity: 109
m/z	relative intensity
41.005	121
43.0251	129
55.0197	133
59.0357	149
71.0255	229
89.0259	378
101.0216	999
