Mass spectrum: (25R)-N,N,N'-Trimethyl-3beta-amino-22,26-epimino-16beta,23-oxido-5alpha-cholest-22-en; APCI-ITFT; MS2; CE: 35 CID;  [M+H]+
Name: (25R)-N,N,N'-Trimethyl-3beta-amino-22,26-epimino-16beta,23-oxido-5alpha-cholest-22-en
Class: NA
Formula: C30H50N2O
Exact mass: 454.39231
SMILES: C[C@@]12[C@](CC[C@]3([H])[C@]2([H])CC[C@@]4(C)[C@@]3([H])C[C@@]([H])(OC(C[C@@H](C)CN5C)=C5[C@H]6C)[C@@]46[H])([H])C[C@@H](N(C)C)CC1
InChI: InChI=1S/C30H50N2O/c1-18-14-26-28(32(7)17-18)19(2)27-25(33-26)16-24-22-9-8-20-15-21(31(5)6)10-12-29(20,3)23(22)11-13-30(24,27)4/h18-25,27H,8-17H2,1-7H3/t18-,19+,20+,21+,22-,23+,24+,25-,27+,29+,30+/m1/s1
Instrument: Orbitrap Elite
Instrument type: APCI-ITFT
Ms type: MS2
Ion mode: POSITIVE
Ionization: APCI
Collision energy: 35 CID
Column name: Acquity CSHC18
Retention time: 0.096 min
Base peak: 455.40270
Precursor m/z: 455.40270
Precursor type: [M+H]+
Precursor intensity: 20904950
m/z	relative intensity
138.1297	3
153.115	17
155.1311	1
176.144	4
178.1231	7
192.137	5
244.2066	2
255.2095	7
257.2268	2
300.2683	21
301.273	4
302.2857	5
344.2925	2
379.3	4
383.3444	2
392.3332	19
395.3145	96
396.3179	8
409.3308	4
410.3389	772
411.3428	54
412.358	7
413.3554	4
425.3564	2
437.3832	5
439.365	11
440.3751	999
441.3803	99
454.3826	5
455.3971	9
