Mass spectrum: 3-indole-acetic acid; LC-ESI-ITFT; MS2; CE: 45eV;  [M+H]+
Name: 3-indole-acetic acid
Class: auxin
Formula: C10H9NO2
Exact mass: 175.0633
SMILES: C1=CC=C2C(=C1)C(=CN2)CC(=O)O
InChI: InChI=1S/C10H9NO2/c12-10(13)5-7-6-11-9-4-2-1-3-8(7)9/h1-4,6,11H,5H2,(H,12,13)
Instrument: LTQ Orbitrap XL, Thermo Scientfic; Dionex Ultimate 300
Instrument type: LC-ESI-ITFT
Ms type: MS2
Ion mode: POSITIVE
Ionization: ESI
Collision energy: 45eV
Column name: Alltima C18
Retention time: 13.48 min
Base peak: 176.0706
Precursor m/z: 176.0706
Precursor type: [M+H]+
m/z	relative intensity
119.1272	285
148.1328	999
