Mass spectrum: 3,4-Dimethoxybenzoic acid; LC-ESI-QTOF; MS2; CE: 15.00;  [M+H]+
Name: 3,4-Dimethoxybenzoic acid
Class: NA
Formula: C9H10O4
Exact mass: 182.0579
SMILES: COC1=C(C=C(C=C1)C(=O)O)OC
InChI: InChI=1S/C9H10O4/c1-12-7-4-3-6(9(10)11)5-8(7)13-2/h3-5H,1-2H3,(H,10,11)
Instrument: Bruker MicrOTOF-Q
Instrument type: LC-ESI-QTOF
Ms type: MS2
Ion mode: POSITIVE
Ionization: ESI
Collision energy: 15.00
Column name: Acquity CSHC18
Retention time: NA
Base peak: 183.0652
Precursor m/z: 183.0652
Precursor type: [M+H]+
m/z	relative intensity
108.055	7
109.0305	13
121.0264	24
122.0334	37
123.0415	21
124.0504	638
124.9947	1
125.0547	51
126.0547	2
135.0439	2
137.058	37
138.0677	47
138.9843	4
139.0743	999
139.257	1
139.3316	1
139.3961	1
139.4496	2
140.0773	84
141.0904	2
149.0257	4
150.0297	16
165.0549	452
165.277	1
166.0589	47
167.0336	3
168.0485	3
182.0631	3
183.0661	16
