Mass spectrum: Prostaglandin A1; ESI-TOF; MS2; CE: 0.6458333;  [M+H]+
Name: Prostaglandin A1
Class: NA
Formula: C20H32O4
Exact mass: 336.23006
SMILES: CCCCCC(C=CC1C=CC(=O)C1CCCCCCC(=O)O)O
InChI: InChI=1S/C20H32O4/c1-2-3-6-9-17(21)14-12-16-13-15-19(22)18(16)10-7-4-5-8-11-20(23)24/h12-18,21H,2-11H2,1H3,(H,23,24)
Instrument: waters xevo g2 TOF
Instrument type: ESI-TOF
Ms type: MS2
Ion mode: POSITIVE
Ionization: ESI
Collision energy: 0.6458333
Column name: Acquity CSHC18
Retention time: 3.943 min
Base peak: 337.23806
Precursor m/z: 337.23806
Precursor type: [M+H]+
m/z	relative intensity
79.0543	136
81.0704	145
91.055	324
92.0578	14
93.0708	256
95.0867	190
97.1003	23
105.071	754
106.0747	46
107.0864	168
109.1023	83
111.0806	33
115.0553	23
117.0711	523
118.0718	25
119.0504	355
121.0655	165
123.0827	59
128.0631	32
129.0708	385
131.0865	765
132.0895	70
133.0657	527
135.0812	58
143.0866	338
145.1018	326
146.1062	29
147.0811	431
148.121	21
155.0858	53
157.1021	189
159.118	166
160.1197	13
161.1335	338
162.1364	32
163.1104	29
169.0996	31
171.0832	17
173.1334	467
174.1368	55
175.148	90
183.1177	32
185.1327	209
186.122	23
187.1479	158
189.1256	80
190.1331	11
191.1419	77
199.1486	164
203.1426	344
204.1505	26
209.1334	94
213.1668	28
215.1802	9
217.1391	45
220.9938	11
223.1457	29
227.144	24
231.1365	23
245.1553	32
248.0726	30
249.0797	221
255.2117	110
259.2044	23
265.1237	56
273.2209	280
274.2235	44
283.2057	279
284.2114	31
301.2169	999
302.2202	220
304.2997	26
319.2271	150
