Mass spectrum: 7-Methylkaempferol; LC-ESI-QTOF; MS2; CE: 50eV;  [M+H]+
Name: 7-Methylkaempferol
Class: Flavonol
Formula: C16H12O6
Exact mass: 300.0634
SMILES: COC1=CC(=C2C(=C1)OC(=C(C2=O)O)C3=CC=C(C=C3)O)O
InChI: InChI=1S/C16H12O6/c1-21-10-6-11(18)13-12(7-10)22-16(15(20)14(13)19)8-2-4-9(17)5-3-8/h2-7,17-18,20H,1H3
Instrument: TIMS-TOF Pro, Bruker Daltonik; Elute UHPLC System, Bruker Daltonik
Instrument type: LC-ESI-QTOF
Ms type: MS2
Ion mode: POSITIVE
Ionization: ESI
Collision energy: 50eV
Column name: Acquity CSHC18
Retention time: 9.086 min
Base peak: 301.0685
Precursor m/z: 301.0685
Precursor type: [M+H]+
Precursor intensity: 732218.5
m/z	relative intensity
56.8289	2
77.037	2
90.0091	1
105.0168	4
106.0387	4
107.0492	20
118.0404	13
121.0275	13
123.0079	10
124.0147	5
128.0633	6
134.0275	2
139.0403	1
156.0545	2
167.0251	1
167.0333	5
168.0355	2
170.0675	1
184.0538	4
187.0384	1
197.4874	2
212.0427	3
215.0196	1
240.0386	2
255.0672	1
256.0335	1
257.0399	3
258.0532	7
259.0533	3
274.0683	1
286.0424	3
300.9997	2
301.0382	12
301.0685	999
301.5615	5
