Mass spectrum: GLUCOSAMINE; LC-ESI-QFT; MS2; CE: 30eV;  [M+H]+
Name: GLUCOSAMINE
Class: NA
Formula: C6H13NO5
Exact mass: 179.07937
SMILES: N[C@H]1C(O)O[C@H](CO)[C@@H](O)[C@@H]1O
InChI: InChI=1S/C6H13NO5/c7-3-5(10)4(9)2(1-8)12-6(3)11/h2-6,8-11H,1,7H2/t2-,3-,4-,5-,6?/m1/s1
Instrument: Q-Exactive Orbitrap, Thermo Scientfic; Ultimate 3000 HPLC, Thermo Scientfic
Instrument type: LC-ESI-QFT
Ms type: MS2
Ion mode: POSITIVE
Ionization: ESI
Collision energy: 30eV
Column name: Acquity CSHC18
Retention time: 0.568 min
Base peak: 180.0867
Precursor m/z: 180.0867
Precursor type: [M+H]+
Precursor intensity: 168
m/z	relative intensity
52.2756	3
52.2768	3
52.2779	3
54.3778	2
55.0186	5
55.7774	2
56.0503	27
57.0343	4
59.0879	2
60.0452	328
61.0292	31
63.5911	3
67.1471	3
68.0502	36
69.0342	48
70.0296	5
70.0658	46
70.1216	2
72.0451	564
72.9042	3
73.0291	7
73.0486	4
74.9425	3
77.1051	3
77.5982	2
78.1286	2
79.6977	2
80.0502	37
81.0341	16
83.0223	3
84.0451	895
85.0291	221
85.0484	7
86.0606	23
87.191	3
90.0556	18
93.763	2
96.045	113
97.029	61
97.0528	5
98.0606	195
99.0446	19
99.0639	3
102.0556	40
103.0395	24
108.0449	25
109.029	13
109.1012	4
109.8273	3
111.969	3
114.0555	118
115.0394	16
116.0711	20
122.2741	3
124.7264	2
126.0553	212
127.0393	69
127.0587	3
129.9793	4
132.0661	6
133.5315	3
139.9637	4
144.0658	338
145.0497	21
153.9741	3
159.3062	3
159.3538	4
162.0764	999
163.0798	28
172.0535	3
177.2749	3
180.0871	71
181.0335	19
