Mass spectrum: THYMIDINE; LC-ESI-QFT; MS2; CE: 30eV;  [M+H]+
Name: THYMIDINE
Class: NA
Formula: C10H14N2O5
Exact mass: 242.09027
SMILES: CC1=CN([C@H]2C[C@H](O)[C@@H](CO)O2)C(=O)NC1=O
InChI: InChI=1S/C10H14N2O5/c1-5-3-12(10(16)11-9(5)15)8-2-6(14)7(4-13)17-8/h3,6-8,13-14H,2,4H2,1H3,(H,11,15,16)/t6-,7+,8+/m0/s1
Instrument: Q-Exactive Orbitrap, Thermo Scientfic; Ultimate 3000 HPLC, Thermo Scientfic
Instrument type: LC-ESI-QFT
Ms type: MS2
Ion mode: POSITIVE
Ionization: ESI
Collision energy: 30eV
Column name: Acquity CSHC18
Retention time: 2.143 min
Base peak: 243.0975
Precursor m/z: 243.0975
Precursor type: [M+H]+
Precursor intensity: 115
m/z	relative intensity
58.371	14
73.029	23
76.9214	15
81.0341	34
88.0742	16
96.344	17
99.0446	88
117.0551	197
127.0505	999
134.9866	19
200.9326	21
205.9936	22
226.3383	18
232.0804	18
233.6022	25
234.4652	18
236.2328	17
