Mass spectrum: CORTISOL; LC-ESI-QFT; MS2; CE: 30eV;  [M+H]+
Name: CORTISOL
Class: NA
Formula: C21H30O5
Exact mass: 362.20932
SMILES: [H][C@@]12CC[C@@](O)(C(=O)CO)[C@@]1(C)C[C@H](O)[C@@]1([H])[C@@]2([H])CCC2=CC(=O)CC[C@]12C
InChI: InChI=1S/C21H30O5/c1-19-7-5-13(23)9-12(19)3-4-14-15-6-8-21(26,17(25)11-22)20(15,2)10-16(24)18(14)19/h9,14-16,18,22,24,26H,3-8,10-11H2,1-2H3/t14-,15-,16-,18+,19-,20-,21+/m0/s1
Instrument: Q-Exactive Orbitrap, Thermo Scientfic; Ultimate 3000 HPLC, Thermo Scientfic
Instrument type: LC-ESI-QFT
Ms type: MS2
Ion mode: POSITIVE
Ionization: ESI
Collision energy: 30eV
Column name: Acquity CSHC18
Retention time: 8.473 min
Base peak: 363.2166
Precursor m/z: 363.2166
Precursor type: [M+H]+
Precursor intensity: 118
m/z	relative intensity
55.0368	4
69.0524	5
81.0523	6
83.0587	6
95.0678	8
107.0677	12
109.0834	12
111.0626	13
121.0833	14
123.0988	14
125.078	14
133.0831	14
135.0988	17
137.0782	18
145.0832	19
147.0988	22
148.1019	23
149.1144	23
151.0937	25
157.083	26
159.107	26
161.1144	26
163.0937	27
165.1095	28
171.0988	33
173.1145	37
177.1094	38
179.0962	41
183.0988	43
185.1145	44
187.1302	44
189.1091	46
191.1249	49
193.1123	54
197.1146	55
199.1302	59
201.1278	61
203.125	61
205.1117	65
207.1275	68
209.114	70
211.1302	75
215.1252	82
217.1408	82
219.1277	84
223.1302	86
225.1456	89
226.1489	91
229.1407	93
233.1423	100
235.1301	106
237.1457	110
239.1427	112
241.1767	121
243.1562	123
249.1458	127
251.1612	130
253.1589	131
257.1715	134
261.1564	136
263.1613	142
267.1563	157
269.1719	158
281.1721	160
282.1756	164
291.1661	167
299.1825	274
317.1924	317
345.2168	999
