Mass spectrum: Oxytetracycline; LC-ESI-ITFT; MS2; CE: 30;  [M+H]+
Name: Oxytetracycline
Class: Phenylpropanoids and polyketides; Tetracyclines
Formula: C22H24N2O9
Exact mass: 460.14818
SMILES: [H][C@@]12[C@@H](O)[C@@]3([H])C(=C(O)C4=C(O)C=CC=C4[C@@]3(C)O)C(=O)[C@]1(O)C(=O)C(C(N)=O)=C(O)[C@H]2N(C)C
InChI: InChI=1S/C22H24N2O9/c1-21(32)7-5-4-6-8(25)9(7)15(26)10-12(21)17(28)13-14(24(2)3)16(27)11(20(23)31)19(30)22(13,33)18(10)29/h4-6,12-14,17,25-28,32-33H,1-3H3,(H2,23,31)/t12-,13-,14+,17+,21-,22+/m1/s1
Instrument: Thermo Scientific Q-Exactive Focus
Instrument type: LC-ESI-ITFT
Ms type: MS2
Ion mode: POSITIVE
Ionization: ESI
Collision energy: 30
Column name: Acquity CSHC18
Retention time: 0.917 min
Base peak: 461.15546
Precursor m/z: 461.15546
Precursor type: [M+H]+
m/z	relative intensity
154.0498	269
201.0544	357
226.0707	259
283.0595	94
335.0546	78
337.0703	356
365.0651	239
381.06	306
408.1071	147
426.1181	999
