Mass spectrum: S-ADENOSYLMETHIONINE; LC-ESI-QTOF; MS2; CE: 40;  [M+H]+
Name: S-ADENOSYLMETHIONINE
Class: NA
Formula: C15H22N6O5S
Exact mass: 398.13724
SMILES: C[S+](CC[C@@H](C(=O)[O-])N)C[C@@H]1[C@H]([C@H]([C@@H](O1)N2C=NC3=C(N=CN=C32)N)O)O
InChI: InChI=1S/C15H22N6O5S/c1-27(3-2-7(16)15(24)25)4-8-10(22)11(23)14(26-8)21-6-20-9-12(17)18-5-19-13(9)21/h5-8,10-11,14,22-23H,2-4,16H2,1H3,(H2-,17,18,19,24,25)/t7-,8+,10+,11+,14+,27?/m0/s1
Instrument: Agilent 6530Â Q-TOF LC/MS
Instrument type: LC-ESI-QTOF
Ms type: MS2
Ion mode: POSITIVE
Ionization: ESI
Collision energy: 40
Column name: NA
Retention time: 0.200 min
Base peak: 399.14225
Precursor m/z: 399.14225
Precursor type: [M+H]+
Precursor intensity: 87.5
m/z	relative intensity
41.0471	79
44.0485	79
45.0315	87
56.0677	90
61.0128	97
65.0412	107
69.0435	115
74.048	116
84.0453	119
97.0517	172
98.0338	232
102.0664	272
119.0285	286
134.9504	304
136.0912	447
146.9919	801
250.0924	999
