Mass spectrum: Miltirone; LC-ESI-QFT; MS2; CE: 15,30,45 (NCE);  [2M+Na]+
Name: Miltirone
Class: NA
Formula: C19H22O2
Exact mass: 282.1620
SMILES: CC(C)C1=CC2=C(C(=O)C1=O)C1=C(C=C2)C(C)(C)CCC1
InChI: InChI=1S/C19H22O2/c1-11(2)14-10-12-7-8-15-13(6-5-9-19(15,3)4)16(12)18(21)17(14)20/h7-8,10-11H,5-6,9H2,1-4H3
Instrument: QE Focus, Thermo Scientfic; UPLC I-Class, Waters
Instrument type: LC-ESI-QFT
Ms type: MS2
Ion mode: POSITIVE
Ionization: ESI
Collision energy: 15,30,45 (NCE)
Column name: Acquity CSHC18
Retention time: 5.079 min
Base peak: 587.3133
Precursor m/z: 587.3133
Precursor type: [2M+Na]+
Precursor intensity: 114778700
m/z	relative intensity
54.3987	1
73.5777	1
81.5889	2
89.4308	1
91.743	1
93.0512	1
95.8742	1
110.1149	1
128.4607	1
177.2651	2
305.1511	999
323.1621	8
346.1781	9
360.0344	2
587.3135	7
