Mass spectrum: 5'-Methylthioadenosine; LC-ESI-QTOF; MS2; CE: 20-40eV;  [M+H]+
Name: 5'-Methylthioadenosine
Class: Amino acids and derivatives
Formula: C11H15N5O3S
Exact mass: 297.0896
SMILES: CSCC1(C(C(C(N2C=NC3=C(N)N=CN=C32)(O1)[H])(O)[H])(O)[H])[H]
InChI: InChI=1S/C11H15N5O3S/c1-20-2-5-7(17)8(18)11(19-5)16-4-15-6-9(12)13-3-14-10(6)16/h3-5,7-8,11,17-18H,2H2,1H3,(H2,12,13,14)
Instrument: Impact II, Bruker; Dionex 3000, Thermo Scientific
Instrument type: LC-ESI-QTOF
Ms type: MS2
Ion mode: POSITIVE
Ionization: ESI
Collision energy: 20-40eV
Column name: Acquity CSHC18
Retention time: 2.798 min
Base peak: 298.0970
Precursor m/z: 298.0970
Precursor type: [M+H]+
Precursor intensity: 176760.9
m/z	relative intensity
99.0538	13
136.0759	22
136.4217	56
138.0794	999
