Mass spectrum: DIHYDROOROTATE; LC-ESI-QTOF; MS2; CE: 10;  [M-H]-
Name: DIHYDROOROTATE
Class: NA
Formula: C5H6N2O4
Exact mass: 158.03276
SMILES: OC(=O)C1CC(=O)NC(=O)N1
InChI: InChI=1S/C5H6N2O4/c8-3-1-2(4(9)10)6-5(11)7-3/h2H,1H2,(H,9,10)(H2,6,7,8,11)
Instrument: Agilent 6530Â Q-TOF LC/MS
Instrument type: LC-ESI-QTOF
Ms type: MS2
Ion mode: NEGATIVE
Ionization: ESI
Collision energy: 10
Column name: NA
Retention time: 0.200 min
Base peak: 157.02697
Precursor m/z: 157.02697
Precursor type: [M-H]-
Precursor intensity: 125
m/z	relative intensity
42.0154	112
70.0393	142
71.0241	146
113.051	344
114.0225	573
157.027	999
