Mass spectrum: 1,2-dimyristoyl-sn-glycero-3-phosphocholine; ESI-TOF; MS2; CE: 6.0000000;  [M+H]+
Name: 1,2-dimyristoyl-sn-glycero-3-phosphocholine
Class: NA
Formula: C36H72NO8P
Exact mass: 677.49955
SMILES: [H]C([H])([H])C([H])([H])C([H])([H])C([H])([H])C([H])([H])C([H])([H])C([H])([H])C([H])([H])C([H])([H])C([H])([H])C([H])([H])C([H])([H])C([H])([H])C(=O)OC([H])([H])C([H])(OC(=O)C([H])([H])C([H])([H])C([H])([H])C([H])([H])C([H])([H])C([H])([H])C([H])([H])C([H])([H])C([H])([H])C([H])([H])C([H])([H])C([H])([H])C([H])([H])[H])C([H])([H])OP(=O)([O-])OC([H])([H])C([H])([H])[N+](C([H])([H])[H])(C([H])([H])[H])C([H])([H])[H]
InChI: InChI=1S/C36H72NO8P/c1-6-8-10-12-14-16-18-20-22-24-26-28-35(38)42-32-34(33-44-46(40,41)43-31-30-37(3,4)5)45-36(39)29-27-25-23-21-19-17-15-13-11-9-7-2/h34H,6-33H2,1-5H3
Instrument: waters xevo g2 TOF
Instrument type: ESI-TOF
Ms type: MS2
Ion mode: POSITIVE
Ionization: ESI
Collision energy: 6.0000000
Column name: Acquity CSHC18
Retention time: 10.069 min
Base peak: 678.50755
Precursor m/z: 678.50755
Precursor type: [M+H]+
m/z	relative intensity
101.9659	2
184.0744	10
261.6188	2
267.1643	83
268.1677	6
283.1369	2
285.137	4
299.1909	6
350.7438	2
358.7321	53
359.2337	22
359.7351	9
366.7179	7
367.2193	3
367.719	2
382.2248	2
423.7091	2
431.6953	2
450.2986	77
451.302	16
452.3051	3
466.2002	1
495.4415	6
496.445	1
522.2282	1
678.5081	999
679.5113	420
