Mass spectrum: Sphingosine; LC-ESI-ITFT; MS2; CE: 60;  [M+H]+
Name: Sphingosine
Class: Organic nitrogen compounds; Organonitrogen compounds; Amines
Formula: C18H37NO2
Exact mass: 299.28243
SMILES: CCCCCCCCCCCCC\C=C\C(O)C(N)CO
InChI: InChI=1S/C18H37NO2/c1-2-3-4-5-6-7-8-9-10-11-12-13-14-15-18(21)17(19)16-20/h14-15,17-18,20-21H,2-13,16,19H2,1H3/b15-14+
Instrument: Thermo Scientific Q-Exactive Focus
Instrument type: LC-ESI-ITFT
Ms type: MS2
Ion mode: POSITIVE
Ionization: ESI
Collision energy: 60
Column name: Acquity CSHC18
Retention time: NA
Base peak: 300.28970
Precursor m/z: 300.28970
Precursor type: [M+H]+
m/z	relative intensity
53.0392	186
55.0548	999
56.0501	741
65.0391	137
67.0422	138
67.0548	538
69.0704	152
79.0547	270
82.0656	198
95.0495	181
