Mass spectrum: 15-deoxy--delta12,14-Prostaglandin A1; ESI-TOF; MS2; CE: 0.6458333;  [M+H]+
Name: 15-deoxy--delta12,14-Prostaglandin A1
Class: NA
Formula: C20H30O3
Exact mass: 318.21949
SMILES: CCCCC/C=C/C=C1\C=CC(=O)C\1CCCCCCC(=O)O
InChI: InChI=1S/C20H30O3/c1-2-3-4-5-6-9-12-17-15-16-19(21)18(17)13-10-7-8-11-14-20(22)23/h6,9,12,15-16,18H,2-5,7-8,10-11,13-14H2,1H3,(H,22,23)/b9-6+,17-12+
Instrument: waters xevo g2 TOF
Instrument type: ESI-TOF
Ms type: MS2
Ion mode: POSITIVE
Ionization: ESI
Collision energy: 0.6458333
Column name: Acquity CSHC18
Retention time: 4.798 min
Base peak: 319.22749
Precursor m/z: 319.22749
Precursor type: [M+H]+
m/z	relative intensity
67.0538	61
69.0698	49
79.0547	136
81.0703	151
83.0856	53
91.0551	213
93.071	259
95.0861	246
105.0706	283
106.0751	36
107.0861	129
109.1021	104
111.0823	29
117.0702	122
119.0858	299
120.0918	23
121.0651	112
129.0718	120
130.0736	21
131.086	271
133.0657	999
134.0701	86
135.0807	51
143.0863	239
144.0539	55
145.1023	146
147.0813	422
148.0826	26
149.1303	28
157.1011	150
159.1194	106
161.1336	148
167.0855	22
169.1029	44
170.0865	31
171.1179	155
173.1325	65
175.149	109
177.1279	56
179.0904	3
179.5924	3
181.1013	38
185.133	192
187.1491	60
188.0966	3
189.1262	59
190.5968	3
191.1222	57
195.1044	49
199.147	81
199.6038	3
200.1064	3
203.1425	254
204.1492	49
209.1278	27
213.1271	60
217.1604	69
231.211	23
241.1952	46
245.2267	42
255.2101	145
256.2151	25
259.207	68
272.0857	34
273.2192	135
274.2242	55
283.2064	108
284.2098	45
300.109	44
301.1781	188
302.2201	49
303.2226	3
319.2267	3
320.2301	3
