Mass spectrum: KYNURENINE; LC-ESI-QFT; MS2; CE: 30eV;  [M-H]-
Name: KYNURENINE
Class: NA
Formula: C10H12N2O3
Exact mass: 208.08479
SMILES: N[C@@H](CC(=O)C1=CC=CC=C1N)C(O)=O
InChI: InChI=1S/C10H12N2O3/c11-7-4-2-1-3-6(7)9(13)5-8(12)10(14)15/h1-4,8H,5,11-12H2,(H,14,15)/t8-/m0/s1
Instrument: Q-Exactive Orbitrap, Thermo Scientfic; Ultimate 3000 HPLC, Thermo Scientfic
Instrument type: LC-ESI-QFT
Ms type: MS2
Ion mode: NEGATIVE
Ionization: ESI
Collision energy: 30eV
Column name: Acquity CSHC18
Retention time: 1.366 min
Base peak: 207.0775
Precursor m/z: 207.0775
Precursor type: [M-H]-
Precursor intensity: 174
m/z	relative intensity
54.9687	8
55.1554	7
61.9868	139
63.3907	8
70.756	8
70.8795	7
72.0074	173
80.5136	8
86.1538	7
87.9236	122
88.9315	19
96.8926	8
101.9393	150
102.7989	8
103.9186	90
104.9263	21
105.9341	12
106.9422	65
117.9342	101
118.0646	128
118.9914	116
119.9374	10
122.2774	8
123.9449	49
124.2574	8
125.8716	441
126.8719	15
127.8686	776
128.049	303
129.0525	12
129.4956	8
131.0361	107
134.0592	9
134.8456	8
138.6428	8
144.044	999
145.0473	59
145.9294	78
146.0596	924
147.0631	54
156.5232	8
157.8616	13
162.8378	204
162.9815	274
163.8456	178
163.9276	16
169.3308	9
172.0391	82
179.9352	21
190.0498	532
191.0536	37
206.8235	17
206.9716	42
207.8243	9
