Mass spectrum: Prostaglandin F2-alpha 1,9-lactone; ESI-TOF; MS2; CE: 6.0000000;  [M+H]+
Name: Prostaglandin F2-alpha 1,9-lactone
Class: NA
Formula: C20H32O4
Exact mass: 336.23006
SMILES: O[C@H]1[C@H](/C=C/[C@@H](O)CCCCC)[C@@H](C/C=C\CCC2)[C@@H](OC2=O)C1
InChI: InChI=1S/C20H32O4/c1-2-3-6-9-15(21)12-13-16-17-10-7-4-5-8-11-20(23)24-19(17)14-18(16)22/h4,7,12-13,15-19,21-22H,2-3,5-6,8-11,14H2,1H3/b7-4-,13-12+/t15-,16+,17+,18+,19-/m0/s1
Instrument: waters xevo g2 TOF
Instrument type: ESI-TOF
Ms type: MS2
Ion mode: POSITIVE
Ionization: ESI
Collision energy: 6.0000000
Column name: Acquity CSHC18
Retention time: 4.262 min
Base peak: 337.23806
Precursor m/z: 337.23806
Precursor type: [M+H]+
m/z	relative intensity
105.0708	2
117.0724	7
119.0874	5
145.1013	2
159.1201	1
161.1322	2
163.1484	3
169.1012	2
173.1324	11
175.1489	14
179.0915	25
179.5917	3
185.0618	4
187.1125	13
190.5979	4
193.1232	2
199.1125	12
200.1513	1
201.1636	4
203.1454	6
205.1229	4
231.138	14
235.1707	19
241.1963	6
245.1528	5
249.1848	3
255.211	6
257.189	5
259.1005	10
265.1961	15
266.1977	2
275.2003	11
283.206	96
284.2079	14
301.1528	999
302.2192	441
303.2256	62
317.2118	9
319.2261	105
320.2305	17
326.378	13
327.3803	3
329.1914	5
333.2424	20
334.2463	4
338.197	19
338.6998	8
