Mass spectrum: 1-desoxymethylsphinganine (m17:0); ESI-TOF; MS2; CE: 6.0000000;  [M+H]+
Name: 1-desoxymethylsphinganine (m17:0)
Class: NA
Formula: C17H37NO
Exact mass: 271.28751
SMILES: [H]OC([H])(C([H])([H])N([H])[H])C([H])([H])C([H])([H])C([H])([H])C([H])([H])C([H])([H])C([H])([H])C([H])([H])C([H])([H])C([H])([H])C([H])([H])C([H])([H])C([H])([H])C([H])([H])C([H])([H])C([H])([H])[H]
InChI: InChI=1S/C17H37NO/c1-2-3-4-5-6-7-8-9-10-11-12-13-14-15-17(19)16-18/h17,19H,2-16,18H2,1H3
Instrument: waters xevo g2 TOF
Instrument type: ESI-TOF
Ms type: MS2
Ion mode: POSITIVE
Ionization: ESI
Collision energy: 6.0000000
Column name: Acquity CSHC18
Retention time: 4.376 min
Base peak: 272.29551
Precursor m/z: 272.29551
Precursor type: [M+H]+
m/z	relative intensity
254.2849	656
255.2881	133
256.2913	13
268.3003	3
272.2953	2
272.2955	999
273.2984	195
274.301	22
275.3047	1
294.2774	13
295.2808	2
300.3265	26
301.3297	5
356.2465	1
565.5651	1
599.4998	3
600.5013	1
