Mass spectrum: Malondialdehyde; LC-ESI-ITFT; MS2; CE: 30;  [M-H]-
Name: Malondialdehyde
Class: Organic oxygen compounds; Organooxygen compounds; Carbonyl compounds
Formula: C3H4O2
Exact mass: 72.02113
SMILES: O=CCC=O
InChI: InChI=1S/C3H4O2/c4-2-1-3-5/h2-3H,1H2
Instrument: Thermo Scientific Q-Exactive Focus
Instrument type: LC-ESI-ITFT
Ms type: MS2
Ion mode: NEGATIVE
Ionization: ESI
Collision energy: 30
Column name: Acquity CSHC18
Retention time: 0.930 min
Base peak: 71.01385
Precursor m/z: 71.01385
Precursor type: [M-H]-
m/z	relative intensity
52.1921	23
52.9419	21
53.0021	999
59.6015	22
59.7713	21
66.0566	23
67.1218	20
68.997	454
71.0126	67
86.8679	26
