Mass spectrum: Picolinic acid; ESI-TOF; MS2; CE: 6.0000000;  [M+H]+
Name: Picolinic acid
Class: NA
Formula: C6H5NO2
Exact mass: 123.03203
SMILES: OC(=O)C1=CC=CC=N1
InChI: InChI=1S/C6H5NO2/c8-6(9)5-3-1-2-4-7-5/h1-4H,(H,8,9)
Instrument: waters xevo g2 TOF
Instrument type: ESI-TOF
Ms type: MS2
Ion mode: POSITIVE
Ionization: ESI
Collision energy: 6.0000000
Column name: Acquity CSHC18
Retention time: 0.624 min
Base peak: 124.04003
Precursor m/z: 124.04003
Precursor type: [M+H]+
m/z	relative intensity
78.0346	3
106.0292	68
106.0293	145
124.0397	999
124.0398	428
125.0431	47
130.0091	5
130.0861	82
130.087	54
131.0887	5
138.0561	39
254.9829	10
258.1712	2
299.9825	4
423.0149	5
444.9977	5
