Mass spectrum: 3-tigloyloxy-6-(2'-methylenebutyryloxy)-tropane; LC-ESI-QTOF; MS2; CE: 35eV;  [M+H]+
Name: 3-tigloyloxy-6-(2'-methylenebutyryloxy)-tropane
Class: Tropane_alkaloid
Formula: C18H27NO4
Exact mass: 321.1940
SMILES: CC(=C(C)C(=O)OC1CC2CC(C(C1)N2C)OC(C(=C)CC)=O)[H]
InChI: InChI=1S/C18H27NO4/c1-6-11(3)17(20)22-14-8-13-9-16(15(10-14)19(13)5)23-18(21)12(4)7-2/h6,13-16H,4,7-10H2,1-3,5H3
Instrument: maXis impact HD, Bruker; Dionex 3000, Thermo Scientific
Instrument type: LC-ESI-QTOF
Ms type: MS2
Ion mode: POSITIVE
Ionization: ESI
Collision energy: 35eV
Column name: Acquity CSHC18
Retention time: 12.160 min
Base peak: 322.2008
Precursor m/z: 322.2008
Precursor type: [M+H]+
Precursor intensity: 14218.75
m/z	relative intensity
91.0543	479
95.0863	19
107.0738	49
112.0762	9
113.9629	18
116.97	23
119.0828	12
122.0959	999
123.0994	78
127.0766	10
128.9856	9
130.0136	9
133.1013	9
136.0745	9
140.1066	44
154.9658	10
156.993	12
163.0284	11
165.0408	9
166.9874	10
175.0298	20
176.9811	10
178.9796	10
184.9933	8
198.8996	15
201.0027	12
203.9392	8
204.9452	12
210.9183	13
212.008	8
214.9082	8
216.9362	15
219.0327	10
221.8932	19
223.1548	12
224.9004	17
226.8906	17
232.9031	13
251.0798	8
261.0641	8
269.9298	9
273.8938	12
275.9964	8
303.8334	8
322.1952	23
