Mass spectrum: Quercetagetin 3-methyl ether; LC-ESI-QTOF; MS2; CE: 50eV;  [M-H]-
Name: Quercetagetin 3-methyl ether
Class: Flavonol
Formula: C16H12O8
Exact mass: 332.0532
SMILES: COC1=C(OC2=C(C1=O)C(=C(C(=C2)O)O)O)C3=CC(=C(C=C3)O)O
InChI: InChI=1S/C16H12O8/c1-23-16-14(22)11-10(5-9(19)12(20)13(11)21)24-15(16)6-2-3-7(17)8(18)4-6/h2-5,17-21H,1H3
Instrument: TIMS-TOF Pro, Bruker Daltonik; Elute UHPLC System, Bruker Daltonik
Instrument type: LC-ESI-QTOF
Ms type: MS2
Ion mode: NEGATIVE
Ionization: ESI
Collision energy: 50eV
Column name: Acquity CSHC18
Retention time: 5.854 min
Base peak: 331.0402
Precursor m/z: 331.0402
Precursor type: [M-H]-
Precursor intensity: 35519.88
m/z	relative intensity
41.2877	11
66.011	29
70.0011	9
82.0043	117
83.0082	8
84.683	8
96.0198	9
109.9238	13
111.0076	295
112.0117	8
117.2154	8
123.0073	36
124.9843	11
137.9925	39
139.0019	195
140.0057	23
148.0221	12
155.0459	11
158.9834	12
161.0178	11
162.9724	10
165.9894	104
166.9985	11
176.0089	9
192.7777	10
215.0299	7
288.0192	9
315.7048	11
316.0187	999
316.1616	8
316.8966	8
317.0201	121
317.5256	11
318.0231	16
331.0402	359
