Mass spectrum: Isovitexin; LC-ESI-ITFT; MS2; CE: 30;  [M+H]+
Name: Isovitexin
Class: NA
Formula: C21H20O10
Exact mass: 432.1056
SMILES: C1=CC(=CC=C1C2=CC(=O)C3=C(O2)C=C(C(=C3O)C4C(C(C(C(O4)CO)O)O)O)O)O
InChI: InChI=1S/C21H20O10/c22-7-14-17(26)19(28)20(29)21(31-14)16-11(25)6-13-15(18(16)27)10(24)5-12(30-13)8-1-3-9(23)4-2-8/h1-6,14,17,19-23,25-29H,7H2
Instrument: q exactive focus thermo
Instrument type: LC-ESI-ITFT
Ms type: MS2
Ion mode: POSITIVE
Ionization: ESI
Collision energy: 30
Column name: Acquity CSHC18
Retention time: 6.934 min
Base peak: 433.1125
Precursor m/z: 433.1125
Precursor type: [M+H]+
Precursor intensity: 267875700
m/z	relative intensity
103.042	34
108.0852	43
109.0347	57
129.0621	79
145.0387	96
297.0566	661
309.0548	999
