Mass spectrum: Benzoic acid; LC-ESI-ITFT; MS2; CE: 40;  [M-H]-
Name: Benzoic acid
Class: Benzenoids; Benzene and substituted derivatives; Benzoic acids and derivatives
Formula: C7H6O2
Exact mass: 122.03678
SMILES: OC(=O)C1=CC=CC=C1
InChI: InChI=1S/C7H6O2/c8-7(9)6-4-2-1-3-5-6/h1-5H,(H,8,9)
Instrument: Thermo Scientific Q-Exactive Focus
Instrument type: LC-ESI-ITFT
Ms type: MS2
Ion mode: NEGATIVE
Ionization: ESI
Collision energy: 40
Column name: Acquity CSHC18
Retention time: 1.475 min
Base peak: 121.02950
Precursor m/z: 121.02950
Precursor type: [M-H]-
m/z	relative intensity
51.2266	880
60.3452	934
64.718	889
66.4172	981
69.0769	897
74.4276	960
76.9621	999
92.5153	942
110.7953	873
113.8905	942
