Mass spectrum: N-METHYLGLUTAMATE; LC-ESI-QFT; MS2; CE: 30eV;  [M+H]+
Name: N-METHYLGLUTAMATE
Class: NA
Formula: C6H11NO4
Exact mass: 161.06881
SMILES: CNC(CCC(=O)O)C(=O)O
InChI: InChI=1S/C6H11NO4/c1-7-4(6(10)11)2-3-5(8)9/h4,7H,2-3H2,1H3,(H,8,9)(H,10,11)
Instrument: Q-Exactive Orbitrap, Thermo Scientfic; Ultimate 3000 HPLC, Thermo Scientfic
Instrument type: LC-ESI-QFT
Ms type: MS2
Ion mode: POSITIVE
Ionization: ESI
Collision energy: 30eV
Column name: Acquity CSHC18
Retention time: 0.628 min
Base peak: 162.0761
Precursor m/z: 162.0761
Precursor type: [M+H]+
Precursor intensity: 120
m/z	relative intensity
50.2369	2
52.3156	2
53.2703	2
54.076	2
55.1896	1
57.7672	2
65.2261	2
70.0659	24
70.3839	2
73.837	2
85.0291	34
85.9369	2
88.5394	2
89.9577	2
91.6269	2
97.3452	2
97.7634	2
98.0607	999
98.5873	2
99.0641	18
103.0395	2
116.0712	795
117.0744	16
117.9804	10
131.0345	29
141.3786	2
144.0659	510
145.069	6
148.7666	2
153.4732	3
155.0112	2
162.0765	558
163.0798	13
