Mass spectrum: 5,7-Dihydroxyflavone; LC-ESI-QTOF; MS2; CE: 35.00;  [M+H]+
Name: 5,7-Dihydroxyflavone
Class: NA
Formula: C15H10O4
Exact mass: 254.0579
SMILES: C1=CC=C(C=C1)C2=CC(=O)C3=C(C=C(C=C3O2)O)O
InChI: InChI=1S/C15H10O4/c16-10-6-11(17)15-12(18)8-13(19-14(15)7-10)9-4-2-1-3-5-9/h1-8,16-17H
Instrument: Bruker MicrOTOF-Q
Instrument type: LC-ESI-QTOF
Ms type: MS2
Ion mode: POSITIVE
Ionization: ESI
Collision energy: 35.00
Column name: Acquity CSHC18
Retention time: NA
Base peak: 255.0655
Precursor m/z: 255.0655
Precursor type: [M+H]+
m/z	relative intensity
127.0527	28
128.0611	29
129.0323	35
130.0356	40
139.053	45
147.0425	54
151.053	62
152.0614	78
153.0177	88
154.0211	95
171.0444	104
181.0641	118
187.0743	133
209.0592	143
213.0551	297
237.054	550
255.0648	752
256.0689	999
