Mass spectrum: p-Aminobenzoic acid; LC-ESI-ITFT; MS2; CE: 60;  [M+H]+
Name: p-Aminobenzoic acid
Class: Benzenoids; Benzene and substituted derivatives; Benzoic acids and derivatives
Formula: C7H7NO2
Exact mass: 137.04768
SMILES: NC1=CC=C(C=C1)C(O)=O
InChI: InChI=1S/C7H7NO2/c8-6-3-1-5(2-4-6)7(9)10/h1-4H,8H2,(H,9,10)
Instrument: Thermo Scientific Q-Exactive Focus
Instrument type: LC-ESI-ITFT
Ms type: MS2
Ion mode: POSITIVE
Ionization: ESI
Collision energy: 60
Column name: Acquity CSHC18
Retention time: 2.014 min
Base peak: 138.05496
Precursor m/z: 138.05496
Precursor type: [M+H]+
m/z	relative intensity
50.0157	632
51.0235	999
53.0027	521
55.0183	71
65.039	541
66.0469	80
69.0856	71
74.0154	912
75.0233	726
130.1944	75
