Mass spectrum: Arginine; LC-ESI-QTOF; MS2; CE: 10;  [M-H]-
Name: Arginine
Class: NA
Formula: C6H14N4O2
Exact mass: 174.1117
SMILES: C(CC(C(=O)O)N)CN=C(N)N
InChI: InChI=1S/C6H14N4O2/c7-4(5(11)12)2-1-3-10-6(8)9/h4H,1-3,7H2,(H,11,12)(H4,8,9,10)
Instrument: impact II
Instrument type: LC-ESI-QTOF
Ms type: MS2
Ion mode: NEGATIVE
Ionization: ESI
Collision energy: 10
Column name: Acquity CSHC18
Retention time: 1.875 min
Base peak: 173.1044
Precursor m/z: 173.1044
Precursor type: [M-H]-
m/z	relative intensity
83.0609	2
85.0772	1
112.0883	5
113.0718	2
114.0563	13
131.0828	999
131.0963	25
131.2392	2
131.4161	2
131.5382	2
132.086	80
133.0871	1
156.0782	39
157.0815	3
173.1047	71
174.1071	6
