Mass spectrum: Acetovanillone; LC-ESI-QTOF; MS2; CE: 15.00;  [M+H]+
Name: Acetovanillone
Class: NA
Formula: C9H10O3
Exact mass: 166.0630
SMILES: CC(=O)C1=CC(=C(C=C1)O)OC
InChI: InChI=1S/C9H10O3/c1-6(10)7-3-4-8(11)9(5-7)12-2/h3-5,11H,1-2H3
Instrument: Bruker MicrOTOF-Q
Instrument type: LC-ESI-QTOF
Ms type: MS2
Ion mode: POSITIVE
Ionization: ESI
Collision energy: 15.00
Column name: Acquity CSHC18
Retention time: NA
Base peak: 167.0703
Precursor m/z: 167.0703
Precursor type: [M+H]+
m/z	relative intensity
93.03	35
107.05	47
109.02	11
110.03	999
111.04	13
125.06	500
126.07	24
141.06	14
151.04	62
152.04	51
153.05	13
167.07	301
168.08	92
