Mass spectrum: L-Isoleucine; LC-ESI-ITFT; MS2; CE: 60;  [M-H]-
Name: L-Isoleucine
Class: Organic acids and derivatives; Carboxylic acids and derivatives; Amino acids, peptides, and analogues
Formula: C6H13NO2
Exact mass: 131.09463
SMILES: CC[C@H](C)[C@H](N)C(O)=O
InChI: InChI=1S/C6H13NO2/c1-3-4(2)5(7)6(8)9/h4-5H,3,7H2,1-2H3,(H,8,9)/t4-,5-/m0/s1
Instrument: Thermo Scientific Q-Exactive Focus
Instrument type: LC-ESI-ITFT
Ms type: MS2
Ion mode: NEGATIVE
Ionization: ESI
Collision energy: 60
Column name: Acquity CSHC18
Retention time: 1.763 min
Base peak: 130.08736
Precursor m/z: 130.08736
Precursor type: [M-H]-
m/z	relative intensity
61.9872	999
90.9247	12
95.0897	11
97.396	11
100.1001	11
100.6019	11
113.0741	12
132.138	11
136.7067	12
142.1978	12
