Mass spectrum: neohesperidin; LC-ESI-ITFT; MS2; CE: 0.3;  [M-H]-
Name: neohesperidin
Class: flavanones
Formula: C28H34O15
Exact mass: 610.1898
SMILES: CC1C(C(C(C(O1)OC2C(C(C(OC2OC3=CC(=C4C(=O)CC(OC4=C3)C5=CC(=C(C=C5)OC)O)O)CO)O)O)O)O)O
InChI: InChI=1S/C28H34O15/c1-10-21(33)23(35)25(37)27(39-10)43-26-24(36)22(34)19(9-29)42-28(26)40-12-6-14(31)20-15(32)8-17(41-18(20)7-12)11-3-4-16(38-2)13(30)5-11/h3-7,10,17,19,21-31,33-37H,8-9H2,1-2H3
Instrument: LTQ-Orbitrap XL hybrid mass spectrometer (Thermo Scientific)
Instrument type: LC-ESI-ITFT
Ms type: MS2
Ion mode: NEGATIVE
Ionization: ESI
Collision energy: 0.3
Column name: Acquity CSHC18
Retention time: 7.829 min
Base peak: 609.1820
Precursor m/z: 609.1820
Precursor type: [M-H]-
Precursor intensity: 20942020
m/z	relative intensity
157.8706	1
160.7799	2
167.7397	2
173.0496	2
180.6646	1
190.37	1
194.4794	2
194.4845	1
194.4987	1
194.5175	1
196.1389	7
198.523	1
199.0401	13
201.0193	5
203.5349	1
205.206	2
205.2114	2
215.0349	6
227.0349	7
240.0426	3
241.0499	4
242.0583	22
243.0617	2
245.4026	1
257.0818	9
258.0532	6
263.3798	1
268.0371	7
282.0532	5
282.32	1
282.985	1
283.0609	20
284.064	2
286.048	33
287.0511	4
287.1882	12
287.1995	4
292.0372	2
296.5765	2
297.0768	6
298.8111	4
299.5612	4
299.8625	3
301.0264	3
301.0483	5
301.0713	999
301.0877	6
301.1073	4
301.1291	2
302.0745	142
302.2876	2
302.5929	4
303.3575	3
307.0604	7
307.9338	1
310.0476	7
315.0868	29
316.0909	3
325.0711	117
326.0745	19
334.6486	1
335.6086	1
337.0712	2
341.0665	4
343.0816	170
344.085	23
349.0722	2
351.5339	1
351.5441	2
355.0815	30
356.0847	4
367.0816	28
368.0851	4
373.0922	7
385.0922	24
386.0964	3
397.0926	2
403.1028	31
404.1062	3
409.0915	3
427.1028	4
429.1183	17
445.1133	10
447.1288	29
448.1332	4
456.8032	2
463.1237	8
471.1291	4
478.4924	3
485.1316	1
489.1397	173
490.1428	38
532.2355	1
535.984	1
591.1712	9
592.1728	2
594.1574	5
