Mass spectrum: Betaine; LC-ESI-ITFT; MS2; CE: 100;  [M+H]+
Name: Betaine
Class: Organic acids and derivatives; Carboxylic acids and derivatives; Amino acids, peptides, and analogues
Formula: C5H11NO2
Exact mass: 117.07898
SMILES: C[N+](C)(C)CC([O-])=O
InChI: InChI=1S/C5H11NO2/c1-6(2,3)4-5(7)8/h4H2,1-3H3
Instrument: Thermo Scientific Q-Exactive Focus
Instrument type: LC-ESI-ITFT
Ms type: MS2
Ion mode: POSITIVE
Ionization: ESI
Collision energy: 100
Column name: Acquity CSHC18
Retention time: 2.570 min
Base peak: 118.08626
Precursor m/z: 118.08626
Precursor type: [M+H]+
m/z	relative intensity
57.0118	855
57.634	874
59.1132	790
61.4057	999
73.6008	833
75.2399	900
89.6274	912
98.8241	881
110.9716	934
122.7525	943
