Mass spectrum: Bergaptol; LC-ESI-ITFT; MS2; CE: 45eV;  [M+H]+
Name: Bergaptol
Class: coumarin
Formula: C11H6O4
Exact mass: 202.0266
SMILES: C1=CC(=O)OC2=CC3=C(C=CO3)C(=C21)O
InChI: InChI=1S/C11H6O4/c12-10-2-1-6-9(15-10)5-8-7(11(6)13)3-4-14-8/h1-5,13H
Instrument: LTQ Orbitrap XL, Thermo Scientfic; Dionex Ultimate 300
Instrument type: LC-ESI-ITFT
Ms type: MS2
Ion mode: POSITIVE
Ionization: ESI
Collision energy: 45eV
Column name: Alltima C18
Retention time: 14.67 min
Base peak: 203.0340
Precursor m/z: 203.0340
Precursor type: [M+H]+
m/z	relative intensity
90.8149	10
128.8267	5
146.9214	999
168.8419	1
203.0524	125
