Mass spectrum: N-ACETYLSEROTONIN; LC-ESI-QFT; MS2; CE: 30eV;  [M-H]-
Name: N-ACETYLSEROTONIN
Class: NA
Formula: C12H14N2O2
Exact mass: 218.10553
SMILES: CC(=O)NCCC1=CNC2=C1C=C(O)C=C2
InChI: InChI=1S/C12H14N2O2/c1-8(15)13-5-4-9-7-14-12-3-2-10(16)6-11(9)12/h2-3,6-7,14,16H,4-5H2,1H3,(H,13,15)
Instrument: Q-Exactive Orbitrap, Thermo Scientfic; Ultimate 3000 HPLC, Thermo Scientfic
Instrument type: LC-ESI-QFT
Ms type: MS2
Ion mode: NEGATIVE
Ionization: ESI
Collision energy: 30eV
Column name: Acquity CSHC18
Retention time: 5.328 min
Base peak: 217.0983
Precursor m/z: 217.0983
Precursor type: [M-H]-
Precursor intensity: 110
m/z	relative intensity
51.9772	2
52.9018	3
52.9098	2
53.4408	3
58.0283	302
59.0176	3
66.5111	3
68.3486	3
71.6541	3
74.9978	3
79.3699	3
95.8263	3
124.8899	8
127.8688	109
128.8769	3
130.0647	4
131.0362	52
136.4037	3
144.0444	5
145.0522	4
146.06	33
157.0519	8
157.3501	3
158.06	620
159.0632	43
170.8829	3
175.0867	17
188.8938	6
215.1735	3
217.0976	999
218.1011	67
238.935	3
