Mass spectrum: Syringetin; LC-ESI-QTOF; MS2; CE: 50eV;  [M+H]+
Name: Syringetin
Class: Flavonol
Formula: C17H14O8
Exact mass: 346.0689
SMILES: COC1=CC(=CC(=C1O)OC)C2=C(C(=O)C3=C(C=C(C=C3O2)O)O)O
InChI: InChI=1S/C17H14O8/c1-23-11-3-7(4-12(24-2)14(11)20)17-16(22)15(21)13-9(19)5-8(18)6-10(13)25-17/h3-6,18-20,22H,1-2H3
Instrument: TIMS-TOF Pro, Bruker Daltonik; Elute UHPLC System, Bruker Daltonik
Instrument type: LC-ESI-QTOF
Ms type: MS2
Ion mode: POSITIVE
Ionization: ESI
Collision energy: 50eV
Column name: Acquity CSHC18
Retention time: 7.510 min
Base peak: 347.0740
Precursor m/z: 347.0740
Precursor type: [M+H]+
Precursor intensity: 312957.4
m/z	relative intensity
25.5873	4
67.018	3
87.6019	4
109.0298	4
115.0517	3
119.5432	3
125.1535	4
131.0395	3
137.0236	9
149.0224	2
152.0103	4
153.0174	45
154.0239	2
156.507	3
165.0177	12
171.0414	3
174.0572	3
181.0484	9
184.0495	3
188.0466	2
195.0423	4
198.6351	3
205.0501	4
213.0582	2
216.0375	4
218.0501	3
219.0258	3
229.0469	17
230.0541	7
232.0341	4
242.0538	3
243.0299	3
244.0351	12
245.04	7
257.0403	12
258.0511	14
259.0512	3
261.0392	4
269.0437	4
285.0403	3
286.0457	17
287.0529	44
288.0538	4
289.0348	6
290.0337	3
291.0857	12
297.0086	1
301.0307	5
303.0409	7
314.0292	3
315.0478	15
316.054	7
318.0712	4
331.0447	11
332.0472	15
333.054	5
342.0027	2
347.0119	21
347.074	999
