Mass spectrum: PANTOTHENATE; LC-ESI-QTOF; MS2; CE: 20;  [M-H]-
Name: PANTOTHENATE
Class: NA
Formula: C9H17NO5
Exact mass: 219.11067
SMILES: CC(C)(CO)C(O)C(=O)NCCC(O)=O
InChI: InChI=1S/C9H17NO5/c1-9(2,5-11)7(14)8(15)10-4-3-6(12)13/h7,11,14H,3-5H2,1-2H3,(H,10,15)(H,12,13)
Instrument: Agilent 6530Â Q-TOF LC/MS
Instrument type: LC-ESI-QTOF
Ms type: MS2
Ion mode: NEGATIVE
Ionization: ESI
Collision energy: 20
Column name: NA
Retention time: 0.200 min
Base peak: 218.10356
Precursor m/z: 218.10356
Precursor type: [M-H]-
Precursor intensity: 173
m/z	relative intensity
41.9993	139
44.0263	191
59.0162	195
71.0524	350
88.0576	706
99.0546	799
116.0685	926
146.1028	999
