Mass spectrum: biotin; LC-ESI-QTOF; MS2; CE: -10, -35, -60V;  [M-H]-
Name: biotin
Class: NA
Formula: C10H16N2O3S
Exact mass: 244.0882
SMILES: C1C2C(C(S1)CCCCC(=O)O)NC(=O)N2
InChI: InChI=1S/C10H16N2O3S/c13-8(14)4-2-1-3-7-9-6(5-16-7)11-10(15)12-9/h6-7,9H,1-5H2,(H,13,14)(H2,11,12,15)
Instrument: TripleToF 5600; Sciex
Instrument type: LC-ESI-QTOF
Ms type: MS2
Ion mode: NEGATIVE
Ionization: ESI
Collision energy: -10, -35, -60V
Column name: Acquity CSHC18
Retention time: 8.172 min
Base peak: 243.0815
Precursor m/z: 243.0815
Precursor type: [M-H]-
Precursor intensity: 152707.8
m/z	relative intensity
103.0415	3
156.0877	13
165.1009	17
166.0927	71
199.0924	25
200.0736	122
209.0942	18
243.0838	999
