Mass spectrum: XYLITOL; LC-ESI-QFT; MS2; CE: 30eV;  [M+H]+
Name: XYLITOL
Class: NA
Formula: C5H12O5
Exact mass: 152.06847
SMILES: OC[C@H](O)C(O)[C@H](O)CO
InChI: InChI=1S/C5H12O5/c6-1-3(8)5(10)4(9)2-7/h3-10H,1-2H2/t3-,4+,5?
Instrument: Q-Exactive Orbitrap, Thermo Scientfic; Ultimate 3000 HPLC, Thermo Scientfic
Instrument type: LC-ESI-QFT
Ms type: MS2
Ion mode: POSITIVE
Ionization: ESI
Collision energy: 30eV
Column name: Acquity CSHC18
Retention time: 0.561 min
Base peak: 153.0758
Precursor m/z: 153.0758
Precursor type: [M+H]+
Precursor intensity: 156
m/z	relative intensity
52.4371	9
52.901	6
53.0393	14
53.9398	15
55.0186	49
56.0163	6
56.1045	6
56.4149	6
57.0342	999
59.0498	8
59.4313	6
61.029	77
65.9112	8
68.9433	73
69.0341	948
70.0374	34
70.3727	7
70.9423	8
71.0133	176
71.0497	130
73.029	233
75.0447	16
77.5723	7
81.0339	48
82.9337	10
83.5772	7
84.2289	9
87.0446	62
93.0703	46
95.0494	38
99.0444	444
102.0221	12
107.0007	10
107.0857	42
109.1014	19
109.9589	37
111.0442	14
111.0806	34
112.9763	71
117.0548	167
121.0286	172
124.5397	8
124.9779	9
125.0962	13
126.9554	13
129.9559	8
129.9917	19
130.0167	51
130.963	16
135.0653	113
135.1167	16
142.978	15
145.0237	8
148.0267	9
148.9735	14
150.4164	8
153.0545	38
153.0757	19
153.0909	34
153.1274	36
153.7366	7
162.1722	7
