Mass spectrum: Coenzyme Q6 (S. cerevisiae); ESI-TOF; MS2; CE: 0.6458333;  [M+H]+
Name: Coenzyme Q6 (S. cerevisiae)
Class: NA
Formula: C39H58O4
Exact mass: 590.43351
SMILES: [H]C(=C(C([H])([H])[H])C([H])([H])C([H])([H])C([H])=C(C([H])([H])[H])C([H])([H])C([H])([H])C([H])=C(C([H])([H])[H])C([H])([H])C([H])([H])C([H])=C(C([H])([H])[H])C([H])([H])C([H])([H])C([H])=C(C([H])([H])[H])C([H])([H])C([H])([H])C([H])=C(C([H])([H])[H])C([H])([H])[H])C([H])([H])C=1C(=O)C(OC([H])([H])[H])=C(OC([H])([H])[H])C(=O)C=1C([H])([H])[H]
InChI: InChI=1S/C39H58O4/c1-28(2)16-11-17-29(3)18-12-19-30(4)20-13-21-31(5)22-14-23-32(6)24-15-25-33(7)26-27-35-34(8)36(40)38(42-9)39(43-10)37(35)41/h16,18,20,22,24,26H,11-15,17,19,21,23,25,27H2,1-10H3
Instrument: waters xevo g2 TOF
Instrument type: ESI-TOF
Ms type: MS2
Ion mode: POSITIVE
Ionization: ESI
Collision energy: 0.6458333
Column name: Acquity CSHC18
Retention time: 11.816 min
Base peak: 591.44151
Precursor m/z: 591.44151
Precursor type: [M+H]+
m/z	relative intensity
67.0552	5
77.0392	7
79.0551	24
81.0706	150
82.0739	7
83.0862	25
91.055	24
93.0703	50
95.0862	181
96.0895	12
97.1017	29
105.0702	30
107.0859	83
108.0576	6
109.1017	171
110.1051	12
111.0808	36
119.0859	53
121.1018	128
122.105	5
123.1176	135
124.1206	11
125.132	5
133.1015	52
134.1058	5
135.1172	121
136.0864	25
137.0962	56
138.1356	8
139.0393	21
143.0513	7
145.1025	27
147.0916	40
148.1212	8
149.0798	63
151.1122	32
153.0549	5
154.063	112
155.0672	12
157.1	8
159.1171	35
160.1211	4
161.1082	26
162.1362	7
163.1488	114
164.1001	15
165.1641	7
167.0712	29
169.0876	42
171.0663	8
173.0964	24
175.1127	40
176.1517	5
177.164	99
178.1677	10
181.0866	144
182.0574	38
187.148	38
188.1526	6
189.1283	38
190.1677	8
191.1257	35
192.1828	8
193.1965	4
195.1015	40
196.0737	10
197.0818	999
198.0846	229
199.117	18
201.1278	19
203.1435	48
204.1829	12
205.1401	28
207.102	25
209.0818	20
211.0971	37
213.1641	11
215.143	22
217.1405	34
218.2002	11
219.1468	16
221.1013	55
222.0856	19
223.0967	43
225.1111	11
227.1789	6
229.1954	23
231.1565	57
232.1595	7
233.1178	33
235.0986	37
237.1125	120
238.1157	16
241.1955	7
243.2115	26
245.173	39
246.2303	5
247.1875	17
249.1133	18
251.1288	33
252.1303	4
255.2118	10
257.1717	17
258.2312	6
259.1351	22
260.2452	5
261.1107	15
263.1285	62
264.1312	8
268.0006	22
269.1132	11
271.1877	22
272.2477	5
273.2026	19
274.0516	20
275.145	12
277.1434	20
279.0472	7
281.103	34
282.052	16
283.1452	9
285.2034	20
287.165	25
289.1422	4
291.1621	14
299.2191	21
300.1657	4
301.2348	17
303.1588	16
305.1765	22
309.1861	10
311.2754	6
313.2078	15
315.1956	10
316.0555	49
316.5566	28
317.1248	13
323.1989	20
324.2074	10
325.2879	8
327.1544	12
329.3215	4
331.1908	26
333.21	10
335.1995	12
339.2504	11
341.2669	14
342.1128	7
345.2043	9
352.678	5
353.2655	9
354.2136	5
355.2273	34
356.1511	57
358.0709	16
359.2262	4
365.2111	4
367.2264	9
369.2395	6
371.2626	10
371.7183	6
373.2371	7
374.2405	2
381.2968	14
383.3685	5
391.2649	4
395.3671	47
396.37	13
399.2518	10
400.9848	17
407.3666	13
409.3817	13
415.036	16
423.2921	8
427.2866	5
439.2422	8
441.3009	15
453.3028	4
455.3169	7
463.322	4
467.3163	14
473.1547	6
477.3291	6
481.333	9
482.3334	3
491.3506	8
495.3474	15
496.3493	2
507.3447	3
509.3643	45
510.3678	18
511.3756	4
515.2427	8
523.377	7
527.3879	9
531.2514	5
535.3783	12
536.3819	3
538.3984	7
541.404	59
542.4086	30
543.4113	6
545.4341	40
546.4374	16
555.1707	2
559.4149	103
560.418	56
561.4244	17
563.3479	11
573.4313	266
574.435	107
575.4342	13
578.1307	1
590.3911	5
591.4409	826
592.4448	348
