Mass spectrum: INDOLe-3-pyruvic acid; LC-ESI-QTOF; MS2; CE: -10, -35, -60V;  [M-H]-
Name: INDOLe-3-pyruvic acid
Class: NA
Formula: C11H9NO3
Exact mass: 203.0582
SMILES: C1=CC=C2C(=C1)C(=CN2)CC(=O)C(=O)O
InChI: InChI=1S/C11H9NO3/c13-10(11(14)15)5-7-6-12-9-4-2-1-3-8(7)9/h1-4,6,12H,5H2,(H,14,15)
Instrument: TripleToF 5600; Sciex
Instrument type: LC-ESI-QTOF
Ms type: MS2
Ion mode: NEGATIVE
Ionization: ESI
Collision energy: -10, -35, -60V
Column name: Acquity CSHC18
Retention time: 13.018 min
Base peak: 202.0522
Precursor m/z: 202.0522
Precursor type: [M-H]-
Precursor intensity: 11948.25
m/z	relative intensity
101.0629	103
155.1085	111
170.1137	80
201.1136	999
202.0536	92
