Mass spectrum: Dimethylglycine; ESI-TOF; MS2; CE: 6.0000000;  [M+H]+
Name: Dimethylglycine
Class: NA
Formula: C4H9NO2
Exact mass: 103.06333
SMILES: CN(C)CC(O)=O
InChI: InChI=1S/C4H9NO2/c1-5(2)3-4(6)7/h3H2,1-2H3,(H,6,7)
Instrument: waters xevo g2 TOF
Instrument type: ESI-TOF
Ms type: MS2
Ion mode: POSITIVE
Ionization: ESI
Collision energy: 6.0000000
Column name: Acquity CSHC18
Retention time: 0.531 min
Base peak: 104.07133
Precursor m/z: 104.07133
Precursor type: [M+H]+
m/z	relative intensity
58.066	3
95.9736	10
97.9695	217
99.9701	94
101.9652	46
104.0714	999
105.0745	52
109.9675	2
117.9799	22
122.082	3
126.0529	57
139.9642	104
142.956	21
143.9602	297
147.9941	9
156.0033	3
158.0037	48
159.9698	38
160.9888	26
162.9949	3
172.9777	200
188.0251	14
188.9671	3
203.997	19
216.057	18
217.0638	3
230.8884	11
235.8709	5
245.0814	19
246.8626	18
258.8865	16
260.0474	7
261.0537	68
283.036	41
284.0385	12
285.033	3
287.8926	12
317.1246	3
319.1192	67
334.1563	33
341.1033	18
348.1439	37
356.1361	9
363.1101	177
364.1156	43
370.1275	13
385.0932	40
386.0897	11
408.0799	12
408.7897	4
537.0964	19
559.0813	20
770.1881	3
