Mass spectrum: Quercetin 5,3'-dimethyl ether-1; LC-ESI-QTOF; MS2; CE: 50eV;  [M-H]-
Name: Quercetin 5,3'-dimethyl ether-1
Class: Flavonol
Formula: C17H14O7
Exact mass: 330.0740
SMILES: COC1=CC(=CC2=C1C(=O)C(=C(O2)C3=CC(=C(C=C3)O)OC)O)O
InChI: InChI=1S/C17H14O7/c1-22-11-5-8(3-4-10(11)19)17-16(21)15(20)14-12(23-2)6-9(18)7-13(14)24-17/h3-7,18-19,21H,1-2H3
Instrument: TIMS-TOF Pro, Bruker Daltonik; Elute UHPLC System, Bruker Daltonik
Instrument type: LC-ESI-QTOF
Ms type: MS2
Ion mode: NEGATIVE
Ionization: ESI
Collision energy: 50eV
Column name: Acquity CSHC18
Retention time: 6.616 min
Base peak: 329.0609
Precursor m/z: 329.0609
Precursor type: [M-H]-
Precursor intensity: 7573.33
m/z	relative intensity
63.0224	65
65.0016	42
94.0035	24
107.0091	15
108.0211	19
109.0264	33
114.0703	19
119.0113	19
121.0306	24
128.472	34
129.0356	23
133.4975	37
148.0125	58
151.0027	41
153.124	18
165.0158	30
175.0376	31
176.0424	28
198.0255	16
201.0143	16
271.0209	26
299.013	162
300.0145	24
314.0374	999
315.0413	105
316.0412	54
329.0609	935
