Mass spectrum: Angelicin; LC-ESI-ITFT; MS2; CE: 45eV;  [M+H]+
Name: Angelicin
Class: coumarin
Formula: C11H6O3
Exact mass: 186.0317
SMILES: C1=CC2=C(C=CO2)C3=C1C=CC(=O)O3
InChI: InChI=1S/C11H6O3/c12-10-4-2-7-1-3-9-8(5-6-13-9)11(7)14-10/h1-6H
Instrument: LTQ Orbitrap XL, Thermo Scientfic; Dionex Ultimate 300
Instrument type: LC-ESI-ITFT
Ms type: MS2
Ion mode: POSITIVE
Ionization: ESI
Collision energy: 45eV
Column name: Uptispher ODB C18
Retention time: 21.66 min
Base peak: 187.0380
Precursor m/z: 187.0380
Precursor type: [M+H]+
m/z	relative intensity
60.7932	1
112.8548	2
114.8606	195
115.9183	5
122.7779	2
126.9976	1
130.9365	825
131.9106	16
140.2277	1
142.8348	999
143.9805	21
144.9845	2
146.0991	1
146.9004	1
154.8592	3
156.9189	2
158.8846	683
159.9426	17
166.859	1
169.0154	6
170.8653	1
172.6549	1
174.8846	1
178.6948	2
179.7249	3
186.9725	49
