Mass spectrum: Phenylacetylglutamine; LC-ESI-ITFT; MS2; CE: 10;  [M-H]-
Name: Phenylacetylglutamine
Class: Organic acids and derivatives; Carboxylic acids and derivatives; Amino acids, peptides, and analogues
Formula: C13H16N2O4
Exact mass: 264.11101
SMILES: NC(=O)CC[C@H](NC(=O)CC1=CC=CC=C1)C(O)=O
InChI: InChI=1S/C13H16N2O4/c14-11(16)7-6-10(13(18)19)15-12(17)8-9-4-2-1-3-5-9/h1-5,10H,6-8H2,(H2,14,16)(H,15,17)(H,18,19)/t10-/m0/s1
Instrument: Thermo Scientific Q-Exactive Focus
Instrument type: LC-ESI-ITFT
Ms type: MS2
Ion mode: NEGATIVE
Ionization: ESI
Collision energy: 10
Column name: Acquity CSHC18
Retention time: NA
Base peak: 263.10373
Precursor m/z: 263.10373
Precursor type: [M-H]-
m/z	relative intensity
92.5136	2
109.0395	1
125.0344	1
127.0501	42
128.0342	10
145.0608	999
245.0929	15
263.1037	240
