Mass spectrum: 17-phenyl trinor Prostaglandin F2-alpha diethyl amide; ESI-TOF; MS2; CE: 6.0000000;  [M+H]+
Name: 17-phenyl trinor Prostaglandin F2-alpha diethyl amide
Class: NA
Formula: C27H41NO4
Exact mass: 443.30356
SMILES: CCN(CC)C(CCC/C=C\C[C@@H]1[C@@H](/C=C/[C@@H](O)CCC2=CC=CC=C2)[C@H](O)C[C@@H]1O)=O
InChI: InChI=1S/C27H41NO4/c1-3-28(4-2)27(32)15-11-6-5-10-14-23-24(26(31)20-25(23)30)19-18-22(29)17-16-21-12-8-7-9-13-21/h5,7-10,12-13,18-19,22-26,29-31H,3-4,6,11,14-17,20H2,1-2H3/b10-5-,19-18+/t22-,23+,24+,25-,26+/m0/s1
Instrument: waters xevo g2 TOF
Instrument type: ESI-TOF
Ms type: MS2
Ion mode: POSITIVE
Ionization: ESI
Collision energy: 6.0000000
Column name: Acquity CSHC18
Retention time: 3.856 min
Base peak: 444.31156
Precursor m/z: 444.31156
Precursor type: [M+H]+
m/z	relative intensity
186.1474	1
210.6143	29
211.1331	4
223.6223	10
224.1233	2
232.6283	2
233.1326	1
239.1612	1
241.6323	2
260.2018	2
286.2167	1
317.19	2
354.2796	46
355.2816	9
364.2641	20
365.2648	5
382.2749	40
383.2784	10
390.2799	233
391.284	58
392.2875	8
408.2903	209
409.2943	66
410.2957	8
426.3011	999
427.3041	325
428.3068	54
444.3124	7
