Mass spectrum: Osthenol; LC-ESI-ITFT; MS2; CE: 45eV;  [M+H]+
Name: Osthenol
Class: coumarin
Formula: C14H14O3
Exact mass: 230.0943
SMILES: CC(=CCC1=C(C=CC2=C1OC(=O)C=C2)O)C
InChI: InChI=1S/C14H14O3/c1-9(2)3-6-11-12(15)7-4-10-5-8-13(16)17-14(10)11/h3-5,7-8,15H,6H2,1-2H3
Instrument: LTQ Orbitrap XL, Thermo Scientfic; Dionex Ultimate 300
Instrument type: LC-ESI-ITFT
Ms type: MS2
Ion mode: POSITIVE
Ionization: ESI
Collision energy: 45eV
Column name: Alltima C18
Retention time: 20.57 min
Base peak: 231.1019
Precursor m/z: 231.1019
Precursor type: [M+H]+
m/z	relative intensity
102.9764	2
118.8839	1
132.9675	1
145.0457	3
146.8988	4
157.0442	1
160.952	3
163.0158	7
171.0282	3
173.037	2
174.9297	999
175.9454	33
185.0072	2
187.0826	5
188.9752	19
189.9787	3
195.0139	1
201.0734	1
202.0593	1
203.0728	10
213.0606	8
215.9797	1
231.1466	6
