Mass spectrum: Caffeic acid; LC-ESI-QTOF; MS2; CE: 7-62eV;  [M-H]-
Name: Caffeic acid
Class: Phenolics
Formula: C9H8O4
Exact mass: 180.0423
SMILES: C1=CC(=C(C=C1C=CC(=O)O)O)O
InChI: InChI=1S/C9H8O4/c10-7-3-1-6(5-8(7)11)2-4-9(12)13/h1-5,10-11H,(H,12,13)
Instrument: Bruker MicrOTOF-Q
Instrument type: LC-ESI-QTOF
Ms type: MS2
Ion mode: NEGATIVE
Ionization: ESI
Collision energy: 7-62eV
Column name: Acquity CSHC18
Retention time: 26.133 min
Base peak: 179.0348
Precursor m/z: 179.0348
Precursor type: [M-H]-
Precursor intensity: 34566.63
m/z	relative intensity
134.0381	68
135.046	129
136.0466	211
137.0546	909
179.0391	999
