Mass spectrum: L-Tyrosine; LC-ESI-ITFT; MS2; CE: 100;  [M-H]-
Name: L-Tyrosine
Class: Organic acids and derivatives; Carboxylic acids and derivatives; Amino acids, peptides, and analogues
Formula: C9H11NO3
Exact mass: 181.07389
SMILES: N[C@@H](CC1=CC=C(O)C=C1)C(O)=O
InChI: InChI=1S/C9H11NO3/c10-8(9(12)13)5-6-1-3-7(11)4-2-6/h1-4,8,11H,5,10H2,(H,12,13)/t8-/m0/s1
Instrument: Thermo Scientific Q-Exactive Focus
Instrument type: LC-ESI-ITFT
Ms type: MS2
Ion mode: NEGATIVE
Ionization: ESI
Collision energy: 100
Column name: Acquity CSHC18
Retention time: NA
Base peak: 180.06662
Precursor m/z: 180.06662
Precursor type: [M-H]-
m/z	relative intensity
57.9745	999
77.576	159
80.9155	272
86.1581	158
90.9775	181
98.3606	162
139.2419	169
154.606	196
163.0855	169
166.8474	183
