Mass spectrum: N-ACETYLASPARTATE; LC-ESI-QTOF; MS2; CE: 20;  [M+H]+
Name: N-ACETYLASPARTATE
Class: NA
Formula: C6H9NO5
Exact mass: 175.04807
SMILES: CC(=O)N[C@@H](CC(O)=O)C(O)=O
InChI: InChI=1S/C6H9NO5/c1-3(8)7-4(6(11)12)2-5(9)10/h4H,2H2,1H3,(H,7,8)(H,9,10)(H,11,12)/t4-/m0/s1
Instrument: Agilent 6530Â Q-TOF LC/MS
Instrument type: LC-ESI-QTOF
Ms type: MS2
Ion mode: POSITIVE
Ionization: ESI
Collision energy: 20
Column name: NA
Retention time: 0.200 min
Base peak: 176.05306
Precursor m/z: 176.05306
Precursor type: [M+H]+
Precursor intensity: 131.5
m/z	relative intensity
43.0101	160
43.0139	305
43.0177	320
43.0214	256
43.0252	193
43.0289	141
43.0327	106
46.019	124
46.0229	254
46.0268	289
46.0306	250
46.0345	198
46.0384	150
46.0423	118
46.0462	98
46.0501	76
70.0153	157
70.0201	339
70.0248	444
70.0296	436
70.0344	378
70.0392	309
70.044	231
70.0488	176
70.0536	134
70.0584	113
70.0632	85
74.0077	177
74.0126	640
74.0176	999
74.0225	978
74.0274	822
74.0323	685
74.0373	538
74.0422	404
74.0471	308
74.0521	249
74.057	198
74.0619	149
74.0669	101
86.9963	83
87.0016	93
87.007	80
88.0256	469
88.031	912
88.0364	997
88.0418	845
88.0472	649
88.0525	499
88.0579	392
88.0633	309
88.0687	288
88.074	291
88.0794	247
88.0848	185
88.0902	131
88.0956	111
88.1009	91
116.0171	176
116.0232	356
116.0294	428
116.0356	365
116.0417	268
116.0479	213
116.0541	176
116.0603	140
116.0664	103
