Mass spectrum: AICAR; LC-ESI-QFT; MS2; CE: 30eV;  [M-H]-
Name: AICAR
Class: NA
Formula: C9H15N4O8P
Exact mass: 338.06275
SMILES: NC(=O)C1=C(N)N(C=N1)[C@@H]1O[C@H](COP(O)(O)=O)[C@@H](O)[C@H]1O
InChI: InChI=1S/C9H15N4O8P/c10-7-4(8(11)16)12-2-13(7)9-6(15)5(14)3(21-9)1-20-22(17,18)19/h2-3,5-6,9,14-15H,1,10H2,(H2,11,16)(H2,17,18,19)/t3-,5-,6-,9-/m1/s1
Instrument: Q-Exactive Orbitrap, Thermo Scientfic; Ultimate 3000 HPLC, Thermo Scientfic
Instrument type: LC-ESI-QFT
Ms type: MS2
Ion mode: NEGATIVE
Ionization: ESI
Collision energy: 30eV
Column name: Acquity CSHC18
Retention time: 0.669 min
Base peak: 337.0555
Precursor m/z: 337.0555
Precursor type: [M-H]-
Precursor intensity: 179
m/z	relative intensity
51.3362	1
52.9806	1
53.2269	1
58.7245	1
61.8243	1
64.258	1
64.6323	1
67.5136	1
72.7413	1
76.9471	1
78.9575	999
87.1261	1
88.3125	1
96.968	462
102.9472	43
107.0348	1
108.0188	2
113.2783	1
116.0965	1
125.0454	111
126.0292	1
126.0486	1
138.9788	6
146.9373	95
147.6791	1
147.938	1
150.9789	77
190.9273	1
192.9899	3
211.0007	53
249.5813	1
280.3255	1
294.05	12
294.3434	1
320.3795	1
337.0558	142
338.0596	5
