Mass spectrum: 1-deoxysphinganine (m18:0); ESI-TOF; MS2; CE: 6.0000000;  [M+H]+
Name: 1-deoxysphinganine (m18:0)
Class: NA
Formula: C18H39NO
Exact mass: 285.30316
SMILES: [H]OC([H])(C([H])([H])C([H])([H])C([H])([H])C([H])([H])C([H])([H])C([H])([H])C([H])([H])C([H])([H])C([H])([H])C([H])([H])C([H])([H])C([H])([H])C([H])([H])C([H])([H])C([H])([H])[H])C([H])(N([H])[H])C([H])([H])[H]
InChI: InChI=1S/C18H39NO/c1-3-4-5-6-7-8-9-10-11-12-13-14-15-16-18(20)17(2)19/h17-18,20H,3-16,19H2,1-2H3
Instrument: waters xevo g2 TOF
Instrument type: ESI-TOF
Ms type: MS2
Ion mode: POSITIVE
Ionization: ESI
Collision energy: 6.0000000
Column name: Acquity CSHC18
Retention time: 4.417 min
Base peak: 286.31116
Precursor m/z: 286.31116
Precursor type: [M+H]+
m/z	relative intensity
268.3006	358
269.3029	89
270.3049	10
284.2952	6
286.3112	999
286.3969	1
287.3147	200
288.3167	24
289.3202	1
308.2927	9
309.2951	1
314.342	10
315.3446	2
593.5955	1
627.5333	1
