Mass spectrum: Quercetin 3-galactoside; LC-ESI-QTOF; MS2; CE: 20-40eV;  [M+H]+
Name: Quercetin 3-galactoside
Class: flavonoid
Formula: C21H20O12
Exact mass: 464.0955
SMILES: C1=CC(=C(C=C1C2=C(C(C3=C(C=C(C=C3O2)O)O)=O)OC4(C(C(C(C(CO)(O4)[H])(O)[H])(O)[H])(O)[H])[H])O)O
InChI: InChI=1S/C21H20O12/c22-6-13-15(27)17(29)18(30)21(32-13)33-20-16(28)14-11(26)4-8(23)5-12(14)31-19(20)7-1-2-9(24)10(25)3-7/h1-5,13,15,17-18,21-27,29-30H,6H2
Instrument: Impact II, Bruker; Dionex 3000, Thermo Scientific
Instrument type: LC-ESI-QTOF
Ms type: MS2
Ion mode: POSITIVE
Ionization: ESI
Collision energy: 20-40eV
Column name: Acquity CSHC18
Retention time: 4.802 min
Base peak: 465.1022
Precursor m/z: 465.1022
Precursor type: [M+H]+
Precursor intensity: 5388
m/z	relative intensity
97.0269	27
99.0439	12
109.0276	26
127.0395	21
137.0221	29
145.0484	34
150.027	12
153.0178	21
153.0519	12
165.0193	13
169.048	12
229.047	17
234.115	15
267.1621	21
303.0493	999
303.0841	28
304.0518	214
305.0507	20
366.0874	12
