Mass spectrum: DL-Homocystine; ESI-TOF; MS2; CE: 6.0000000;  [M+H]+
Name: DL-Homocystine
Class: NA
Formula: C8H16N2O4S2
Exact mass: 268.05515
SMILES: NC(CCSSCCC(N)C(O)=O)C(O)=O
InChI: InChI=1S/C8H16N2O4S2/c9-5(7(11)12)1-3-15-16-4-2-6(10)8(13)14/h5-6H,1-4,9-10H2,(H,11,12)(H,13,14)
Instrument: waters xevo g2 TOF
Instrument type: ESI-TOF
Ms type: MS2
Ion mode: POSITIVE
Ionization: ESI
Collision energy: 6.0000000
Column name: Acquity CSHC18
Retention time: 0.543 min
Base peak: 269.06315
Precursor m/z: 269.06315
Precursor type: [M+H]+
m/z	relative intensity
88.0221	194
90.0379	371
118.0329	397
134.0606	999
135.0567	57
137.9659	6
137.9884	174
138.0559	76
140.9633	27
141.9594	887
142.9643	31
148.0411	15
149.9807	46
162.9831	10
167.0085	19
182.9857	89
189.9703	31
195.9091	7
206.9983	7
207.974	3
230.991	5
231.9862	7
237.0927	9
249.8872	4
269.0626	336
270.0655	35
271.0593	33
277.9843	37
291.0456	11
293.0229	4
307.0134	6
324.9852	6
537.1196	11
590.0273	14
858.0962	5
