Mass spectrum: Cysteic acid; LC-ESI-ITFT; MS2; CE: 20;  [M-H]-
Name: Cysteic acid
Class: Organic acids and derivatives; Carboxylic acids and derivatives; Amino acids, peptides, and analogues
Formula: C3H7NO5S
Exact mass: 169.00449
SMILES: NC(CS(O)(=O)=O)C(O)=O
InChI: InChI=1S/C3H7NO5S/c4-2(3(5)6)1-10(7,8)9/h2H,1,4H2,(H,5,6)(H,7,8,9)
Instrument: Thermo Scientific Q-Exactive Focus
Instrument type: LC-ESI-ITFT
Ms type: MS2
Ion mode: NEGATIVE
Ionization: ESI
Collision energy: 20
Column name: Acquity CSHC18
Retention time: 0.642 min
Base peak: 167.99722
Precursor m/z: 167.99722
Precursor type: [M-H]-
m/z	relative intensity
71.0126	388
79.9561	4
80.9639	999
86.0235	54
104.3426	3
129.7816	2
141.684	2
150.9696	60
167.9962	30
170.5312	2
