Mass spectrum: Myricetin; LC-ESI-ITFT; MS2; CE: 0.3;  [M-H]-
Name: Myricetin
Class: flavonols
Formula: C15H10O8
Exact mass: 318.0376
SMILES: C1=C(C=C(C(=C1O)O)O)C2=C(C(=O)C3=C(C=C(C=C3O2)O)O)O
InChI: InChI=1S/C15H10O8/c16-6-3-7(17)11-10(4-6)23-15(14(22)13(11)21)5-1-8(18)12(20)9(19)2-5/h1-4,16-20,22H
Instrument: LTQ-Orbitrap XL hybrid mass spectrometer (Thermo Scientific)
Instrument type: LC-ESI-ITFT
Ms type: MS2
Ion mode: NEGATIVE
Ionization: ESI
Collision energy: 0.3
Column name: Acquity CSHC18
Retention time: 6.183 min
Base peak: 317.0297
Precursor m/z: 317.0297
Precursor type: [M-H]-
Precursor intensity: 7992490
m/z	relative intensity
80.2654	2
89.6646	2
97.8896	2
100.5894	2
107.0143	27
108.494	2
109.03	6
121.1757	2
122.6781	2
124.4948	2
125.025	9
125.4463	2
127.309	2
134.0555	2
134.5756	2
137.0247	60
140.8939	3
148.5702	2
150.2003	4
151.004	425
151.8142	5
153.1886	3
153.831	3
157.7012	3
158.5488	3
163.0042	17
164.1855	2
165.0201	5
167.0973	8
177.9615	15
178.3051	5
178.4448	4
178.9585	6
178.9654	5
178.9987	999
179.6949	5
180.0027	6
180.0453	12
182.4711	2
186.4951	3
190.9986	31
192.0063	133
192.9955	3
193.0142	93
201.5351	2
201.8592	3
206.0311	3
217.7437	3
219.6847	2
222.5566	3
223.7031	3
227.0346	31
233.4377	4
235.7477	3
245.0445	19
254.4699	3
255.03	30
256.0372	3
271.0236	15
273.0419	7
274.2152	3
277.0213	2
280.5934	3
285.0105	3
286.3525	3
286.9709	5
289.0356	26
292.4532	3
292.5447	4
295.3079	3
299.0183	28
299.4076	3
300.2542	2
306.7405	3
307.0222	3
309.3408	3
311.4279	3
317.0288	16
