Mass spectrum: Chloro-Phenylalanine; LC-ESI-QTOF; MS2; CE: 20 / 50;  [M-H]-
Name: Chloro-Phenylalanine
Class: NA
Formula: C9H10ClNO2
Exact mass: 199.04001
SMILES: C1=CC(=CC=C1CC(C(=O)O)N)Cl
InChI: InChI=1S/C9H10ClNO2/c10-7-3-1-6(2-4-7)5-8(11)9(12)13/h1-4,8H,5,11H2,(H,12,13)
Instrument: impact II
Instrument type: LC-ESI-QTOF
Ms type: MS2
Ion mode: NEGATIVE
Ionization: ESI
Collision energy: 20 / 50
Column name: Acquity CSHC18
Retention time: 2.135 min
Base peak: 198.03250
Precursor m/z: 198.03250
Precursor type: [M-H]-
m/z	relative intensity
34.9693	186
72.0089	237
125.0173	145
137.0159	353
181.006	999
183.0027	292
198.0327	311
