Mass spectrum: L-Tryptophan - NH3; LC-ESI-QTOF; MS2; CE: 15.00;  [M-NH3+H]+
Name: L-Tryptophan - NH3
Class: NA
Formula: C11H12N2O2
Exact mass: 204.0899
SMILES: C1=CC=C2C(=C1)C(=CN2)CC(C(=O)O)N
InChI: InChI=1S/C11H12N2O2/c12-9(11(14)15)5-7-6-13-10-4-2-1-3-8(7)10/h1-4,6,9,13H,5,12H2,(H,14,15)
Instrument: Bruker MicrOTOF-Q
Instrument type: LC-ESI-QTOF
Ms type: MS2
Ion mode: POSITIVE
Ionization: ESI
Collision energy: 15.00
Column name: Acquity CSHC18
Retention time: NA
Base peak: 188.0706
Precursor m/z: 188.0706
Precursor type: [M-NH3+H]+
m/z	relative intensity
115.0506	27
117.0628	38
118.0618	56
119.0647	63
142.0626	77
143.0703	88
144.0783	96
145.0787	107
146.0579	218
147.0614	236
170.0594	370
171.0623	873
188.069	999
