Mass spectrum: 3-METHYL-L-HISTIDINE; LC-ESI-QTOF; MS2; CE: 10;  [M+H]+
Name: 3-METHYL-L-HISTIDINE
Class: NA
Formula: C7H11N3O2
Exact mass: 169.0851
SMILES: [H][C@](N)(CC1=CN=CN1C)C(O)=O
InChI: InChI=1S/C7H11N3O2/c1-10-4-9-3-5(10)2-6(8)7(11)12/h3-4,6H,2,8H2,1H3,(H,11,12)/t6-/m0/s1
Instrument: Agilent 6530Â Q-TOF LC/MS
Instrument type: LC-ESI-QTOF
Ms type: MS2
Ion mode: POSITIVE
Ionization: ESI
Collision energy: 10
Column name: NA
Retention time: 0.200 min
Base peak: 170.09288
Precursor m/z: 170.09288
Precursor type: [M+H]+
Precursor intensity: 193.5
m/z	relative intensity
93.96	92
95.0615	101
96.0647	190
97.0747	249
109.0738	369
126.0961	558
170.0863	999
