Mass spectrum: 4',5,7-Trihydroxyisoflavone; LC-ESI-QTOF; MS2; CE: 15;  [M-H]-
Name: 4',5,7-Trihydroxyisoflavone
Class: NA
Formula: C15H10O5
Exact mass: 270.0528
SMILES: C1=CC(=CC=C1C2=COC3=CC(=CC(=C3C2=O)O)O)O
InChI: InChI=1S/C15H10O5/c16-9-3-1-8(2-4-9)11-7-20-13-6-10(17)5-12(18)14(13)15(11)19/h1-7,16-18H
Instrument: Bruker MicrOTOF-Q
Instrument type: LC-ESI-QTOF
Ms type: MS2
Ion mode: NEGATIVE
Ionization: ESI
Collision energy: 15
Column name: Acquity CSHC18
Retention time: NA
Base peak: 269.0455
Precursor m/z: 269.0455
Precursor type: [M-H]-
m/z	relative intensity
45.7999	4
48.9735	3
52.5507	4
54.4578	4
55.9819	4
56.8096	3
57.8434	4
59.138	4
62.0781	4
62.8187	4
64.3684	3
64.8372	4
65.7348	4
69.0425	4
70.0019	4
71.5619	4
73.0747	4
74.4775	4
75.172	5
76.3437	4
77.4356	4
78.2776	4
80.5737	4
81.9374	4
82.9992	4
84.2663	4
85.2339	4
86.1632	6
87.9484	4
88.61	5
89.3287	4
91.1184	4
91.7773	4
93.0012	4
94.0765	4
95.3104	4
96.1597	4
97.4796	4
98.3252	4
98.9529	4
99.5654	4
100.9671	4
102.9661	4
104.1118	6
106.0291	7
107.5192	3
108.5384	5
110.1406	4
111.107	4
111.9078	4
112.332	6
113.2677	5
114.3747	4
115.661	4
118.3917	4
119.9121	5
121.8418	4
124.1351	4
125.3188	4
126.6073	4
128.6916	5
130.4134	5
132.527	17
134.4709	9
136.46	4
138.0488	5
140.2825	4
143.3543	4
145.181	5
146.075	4
147.3309	4
149.4398	4
150.7091	7
151.8883	5
153.2929	4
155.9598	7
158.5638	10
160.8497	6
163.1375	4
166.799	5
169.8215	5
171.047	20
172.3928	5
173.8811	5
175.4704	6
178.2031	5
179.4747	4
181.5798	17
184.4526	7
187.8963	5
190.7675	4
192.3921	5
197.7964	20
203.11	5
205.3631	5
207.0675	5
208.631	5
209.9454	8
210.5312	4
212.5277	13
215.6951	5
217.0935	5
218.0726	4
219.838	5
221.0731	4
224.6003	31
227.5211	4
228.4182	8
230.1382	4
231.4277	5
233.6387	4
237.3803	5
240.1549	30
242.2686	7
245.2934	5
247.3996	4
248.4259	5
250.2723	5
252.8468	4
254.7938	5
255.7998	4
257.3005	4
258.7327	4
259.4298	5
260.4206	5
261.8144	4
263.3016	4
264.2744	4
265.3809	4
266.3137	4
267.7549	39
270.6386	999
