Mass spectrum: Penicillin G; LC-ESI-QTOF; MS2; CE: 30;  [M+H]+
Name: Penicillin G
Class: Dipeptides
Formula: C16H18N2O4S
Exact mass: 334.09873
SMILES: [H][C@]12SC(C)(C)[C@@H](N1C(=O)[C@H]2NC(=O)CC1=CC=CC=C1)C(O)=O
InChI: InChI=1S/C16H18N2O4S/c1-16(2)12(15(21)22)18-13(20)11(14(18)23-16)17-10(19)8-9-6-4-3-5-7-9/h3-7,11-12,14H,8H2,1-2H3,(H,17,19)(H,21,22)/t11-,12+,14-/m1/s1
Instrument: impact II
Instrument type: LC-ESI-QTOF
Ms type: MS2
Ion mode: POSITIVE
Ionization: ESI
Collision energy: 30
Column name: Acquity CSHC18
Retention time: 1.911 min
Base peak: 335.10570
Precursor m/z: 335.10570
Precursor type: [M+H]+
m/z	relative intensity
128.0524	215
159.091	133
160.0424	136
176.0701	177
289.1	460
335.1056	999
336.1085	192
