Mass spectrum: 2-oleoyl glycerol; ESI-TOF; MS2; CE: 0.6458333;  [M+H]+
Name: 2-oleoyl glycerol
Class: NA
Formula: C21H40O4
Exact mass: 356.29266
SMILES: [H]OC([H])([H])C([H])(OC(=O)C([H])([H])C([H])([H])C([H])([H])C([H])([H])C([H])([H])C([H])([H])C([H])([H])C([H])=C([H])C([H])([H])C([H])([H])C([H])([H])C([H])([H])C([H])([H])C([H])([H])C([H])([H])C([H])([H])[H])C([H])([H])O[H]
InChI: InChI=1S/C21H40O4/c1-2-3-4-5-6-7-8-9-10-11-12-13-14-15-16-17-21(24)25-20(18-22)19-23/h9-10,20,22-23H,2-8,11-19H2,1H3
Instrument: waters xevo g2 TOF
Instrument type: ESI-TOF
Ms type: MS2
Ion mode: POSITIVE
Ionization: ESI
Collision energy: 0.6458333
Column name: Acquity CSHC18
Retention time: 7.893 min
Base peak: 357.30066
Precursor m/z: 357.30066
Precursor type: [M+H]+
m/z	relative intensity
67.0556	103
69.0707	207
71.0865	38
79.055	103
81.0708	335
83.0863	314
85.1018	35
93.0708	128
95.0859	432
97.1015	304
107.0862	209
109.102	252
111.1169	107
112.0287	469
112.5305	30
121.1016	435
123.1174	50
125.097	33
131.002	263
135.1175	349
137.1315	32
139.1126	31
147.0806	32
149.1333	153
161.0306	28
163.1489	53
198.1277	82
223.0497	206
241.0236	33
244.1524	792
244.6541	203
247.2428	153
248.2464	25
265.253	215
266.258	19
321.2109	999
322.2146	201
323.2185	33
335.1709	86
336.1766	155
337.1809	169
338.1862	38
339.2894	242
340.2942	52
