Mass spectrum: Carbamoylaspartic acid; LC-ESI-QTOF; MS2; CE: 15 / 50;  [M+H]+
Name: Carbamoylaspartic acid
Class: NA
Formula: C5H8N2O5
Exact mass: 176.04332
SMILES: C(C(C(=O)O)NC(=O)N)C(=O)O
InChI: InChI=1S/C5H8N2O5/c6-5(12)7-2(4(10)11)1-3(8)9/h2H,1H2,(H,8,9)(H,10,11)(H3,6,7,12)
Instrument: impact II
Instrument type: LC-ESI-QTOF
Ms type: MS2
Ion mode: POSITIVE
Ionization: ESI
Collision energy: 15 / 50
Column name: Acquity CSHC18
Retention time: 0.613 min
Base peak: 177.05040
Precursor m/z: 177.05040
Precursor type: [M+H]+
m/z	relative intensity
46.0293	348
74.0241	368
88.0395	793
116.034	556
131.0446	103
134.0447	999
