Mass spectrum: NORSPERMIDINE; LC-ESI-QTOF; MS2; CE: 10;  [M+H]+
Name: NORSPERMIDINE
Class: NA
Formula: C6H17N3
Exact mass: 131.14225
SMILES: NCCCNCCCN
InChI: InChI=1S/C6H17N3/c7-3-1-5-9-6-2-4-8/h9H,1-8H2
Instrument: Agilent 6530Â Q-TOF LC/MS
Instrument type: LC-ESI-QTOF
Ms type: MS2
Ion mode: POSITIVE
Ionization: ESI
Collision energy: 10
Column name: NA
Retention time: 0.200 min
Base peak: 132.14871
Precursor m/z: 132.14871
Precursor type: [M+H]+
Precursor intensity: 189.5
m/z	relative intensity
41.0564	23
42.0521	23
43.0559	23
44.1216	23
44.3707	24
55.0447	24
56.0592	25
57.8433	25
58.4492	26
58.9557	26
59.0685	27
59.8258	27
62.9485	27
68.0473	27
69.8341	30
70.3092	31
71.0728	31
72.0838	34
75.1222	39
75.2837	45
75.8417	48
75.9241	51
84.0875	52
86.0991	55
87.0964	65
90.9088	77
98.7329	110
99.6179	230
103.9688	241
113.1141	347
115.5984	496
116.4295	670
116.5532	761
116.6522	803
132.7827	860
133.7088	918
134.0865	999
