Mass spectrum: L-Homoserine lactone; LC-ESI-ITFT; MS2; CE: 60;  [M+H]+
Name: L-Homoserine lactone
Class: NA
Formula: C4H7NO2
Exact mass: 101.04768
SMILES: C1COC(=O)[C@H]1N
InChI: InChI=1S/C4H7NO2/c5-3-1-2-7-4(3)6/h3H,1-2,5H2/t3-/m0/s1
Instrument: Thermo Scientific Q-Exactive Focus
Instrument type: LC-ESI-ITFT
Ms type: MS2
Ion mode: POSITIVE
Ionization: ESI
Collision energy: 60
Column name: Acquity CSHC18
Retention time: 1.228 min
Base peak: 102.05496
Precursor m/z: 102.05496
Precursor type: [M+H]+
m/z	relative intensity
50.4399	492
53.0028	999
54.8176	504
56.8523	530
68.9222	544
87.4985	493
90.7473	504
95.8643	551
106.6011	535
110.471	487
