Mass spectrum: D-Glucurono-6,3-lactone; ESI-TOF; MS2; CE: 6.0000000;  [M+H]+
Name: D-Glucurono-6,3-lactone
Class: NA
Formula: C6H8O6
Exact mass: 176.03209
SMILES: OC1OC2C(O)C(=O)OC2C1O
InChI: InChI=1S/C6H8O6/c7-1-3-4(12-5(1)9)2(8)6(10)11-3/h1-5,7-9H
Instrument: waters xevo g2 TOF
Instrument type: ESI-TOF
Ms type: MS2
Ion mode: POSITIVE
Ionization: ESI
Collision energy: 6.0000000
Column name: Acquity CSHC18
Retention time: 0.571 min
Base peak: 177.04009
Precursor m/z: 177.04009
Precursor type: [M+H]+
m/z	relative intensity
85.0293	1
113.9407	1
113.9641	197
126.9489	1
130.0078	35
130.0094	69
137.9883	999
139.9563	1
139.9882	1
141.9593	599
143.9592	1
144.9595	1
152.9948	40
154.9664	1
155.034	86
155.975	1
158.0035	100
158.0036	93
159.0299	317
160.0319	22
170.9819	24
170.983	36
173.0027	1
184.9859	280
186.981	165
194.0674	86
199.022	319
201.9565	67
201.9567	1
215.0752	27
226.0936	37
231.0483	879
261.9773	125
287.8906	23
289.9725	60
321.9961	32
375.0544	48
377.0314	25
405.9838	274
406.9888	67
407.0794	85
438.0097	51
439.0125	18
439.106	47
