Mass spectrum: Thymidine; LC-ESI-QTOF; MS2; CE: 15.00;  [M+H]+
Name: Thymidine
Class: NA
Formula: C10H14N2O5
Exact mass: 242.0903
SMILES: CC1=CN(C(=O)NC1=O)C2CC(C(O2)CO)O
InChI: InChI=1S/C10H14N2O5/c1-5-3-12(10(16)11-9(5)15)8-2-6(14)7(4-13)17-8/h3,6-8,13-14H,2,4H2,1H3,(H,11,15,16)
Instrument: Bruker MicrOTOF-Q
Instrument type: LC-ESI-QTOF
Ms type: MS2
Ion mode: POSITIVE
Ionization: ESI
Collision energy: 15.00
Column name: Acquity CSHC18
Retention time: NA
Base peak: 243.0975
Precursor m/z: 243.0975
Precursor type: [M+H]+
m/z	relative intensity
99.0436	22
109.0367	18
109.0998	2
110.0185	47
111.0252	2
117.0512	40
118.0582	2
126.0674	6
126.4294	1
126.5337	2
126.8971	1
126.9377	3
127.0473	999
127.1698	3
127.2589	3
127.3613	3
127.5049	2
128.0509	54
129.0498	3
129.2389	2
154.0033	3
197.0146	1
592.5182	1
