Mass spectrum: Epinephrine; LC-ESI-ITFT; MS2; CE: 30;  [M-H]-
Name: Epinephrine
Class: Benzenoids; Phenols; Benzenediols
Formula: C9H13NO3
Exact mass: 183.08954
SMILES: CNC[C@H](O)C1=CC(O)=C(O)C=C1
InChI: InChI=1S/C9H13NO3/c1-10-5-9(13)6-2-3-7(11)8(12)4-6/h2-4,9-13H,5H2,1H3/t9-/m0/s1
Instrument: Thermo Scientific Q-Exactive Focus
Instrument type: LC-ESI-ITFT
Ms type: MS2
Ion mode: NEGATIVE
Ionization: ESI
Collision energy: 30
Column name: Acquity CSHC18
Retention time: 0.925 min
Base peak: 182.08228
Precursor m/z: 182.08228
Precursor type: [M-H]-
m/z	relative intensity
122.0362	999
123.044	44
124.0155	49
137.0233	169
147.0315	28
148.0394	393
149.0471	264
154.0262	128
161.0474	30
164.0708	88
