Mass spectrum: Resveratrol; LC-ESI-ITFT; MS2; CE: 10;  [M-H]-
Name: Resveratrol
Class: Phenylpropanoids and polyketides; Stilbenes
Formula: C14H12O3
Exact mass: 228.07864
SMILES: OC1=CC=C(\C=C\C2=CC(O)=CC(O)=C2)C=C1
InChI: InChI=1S/C14H12O3/c15-12-5-3-10(4-6-12)1-2-11-7-13(16)9-14(17)8-11/h1-9,15-17H/b2-1+
Instrument: Thermo Scientific Q-Exactive Focus
Instrument type: LC-ESI-ITFT
Ms type: MS2
Ion mode: NEGATIVE
Ionization: ESI
Collision energy: 10
Column name: Acquity CSHC18
Retention time: 0.360 min
Base peak: 227.07137
Precursor m/z: 227.07137
Precursor type: [M-H]-
m/z	relative intensity
130.9826	74
143.0492	10
158.9776	265
180.9118	8
183.0807	10
185.06	37
226.8008	20
226.9865	31
227.004	7
227.0711	999
