Mass spectrum: Chlorogenic acid; LC-ESI-QTOF; MS2; CE: 7-62eV;  [M-H]-
Name: Chlorogenic acid
Class: Phenolics
Formula: C16H18O9
Exact mass: 354.0951
SMILES: C1C(C(C(CC1(C(=O)O)O)OC(=O)C=CC2=CC(=C(C=C2)O)O)O)O
InChI: InChI=1S/C16H18O9/c17-9-3-1-8(5-10(9)18)2-4-13(20)25-12-7-16(24,15(22)23)6-11(19)14(12)21/h1-5,11-12,14,17-19,21,24H,6-7H2,(H,22,23)
Instrument: Bruker MicrOTOF-Q
Instrument type: LC-ESI-QTOF
Ms type: MS2
Ion mode: NEGATIVE
Ionization: ESI
Collision energy: 7-62eV
Column name: Acquity CSHC18
Retention time: 29.108 min
Base peak: 353.0860
Precursor m/z: 353.0860
Precursor type: [M-H]-
Precursor intensity: 45157.69
m/z	relative intensity
127.0403	18
135.0443	22
161.0297	24
171.0318	26
173.0451	29
179.0323	29
191.0667	31
192.0631	52
193.0576	127
305.0655	512
353.1158	999
