Mass spectrum: dUMP; LC-ESI-QTOF; MS2; CE: -10, -35, -60V;  [M-H]-
Name: dUMP
Class: NA
Formula: C9H13N2O8P
Exact mass: 308.0410
SMILES: C1C(C(OC1N2C=CC(=O)NC2=O)COP(=O)(O)O)O
InChI: InChI=1S/C9H13N2O8P/c12-5-3-8(11-2-1-7(13)10-9(11)14)19-6(5)4-18-20(15,16)17/h1-2,5-6,8,12H,3-4H2,(H,10,13,14)(H2,15,16,17)
Instrument: TripleToF 5600; Sciex
Instrument type: LC-ESI-QTOF
Ms type: MS2
Ion mode: NEGATIVE
Ionization: ESI
Collision energy: -10, -35, -60V
Column name: Acquity CSHC18
Retention time: 7.837 min
Base peak: 307.0327
Precursor m/z: 307.0327
Precursor type: [M-H]-
Precursor intensity: 337302
m/z	relative intensity
78.9593	999
96.9689	126
111.0204	248
150.9809	10
176.9965	90
195.0085	252
307.0177	6
307.035	207
