Mass spectrum: Solanocapsine; APCI-ITFT; MS2; CE: 35 CID;  [M+H]+
Name: Solanocapsine
Class: NA
Formula: C27H46N2O2
Exact mass: 430.35593
SMILES: CC1CC2(C(C(C3C(O2)CC4C3(CCC5C4CCC6C5(CCC(C6)N)C)C)C)NC1)O
InChI: InChI=1S/C27H46N2O2/c1-15-13-27(30)24(29-14-15)16(2)23-22(31-27)12-21-19-6-5-17-11-18(28)7-9-25(17,3)20(19)8-10-26(21,23)4/h15-24,29-30H,5-14,28H2,1-4H3
Instrument: Orbitrap Elite
Instrument type: APCI-ITFT
Ms type: MS2
Ion mode: POSITIVE
Ionization: APCI
Collision energy: 35 CID
Column name: Acquity CSHC18
Retention time: 0.064 min
Base peak: 431.36150
Precursor m/z: 431.36150
Precursor type: [M+H]+
Precursor intensity: 176940800
m/z	relative intensity
121.8945	1
125.0749	1
128.8019	1
140.4526	1
149.1206	1
168.8575	1
179.8611	1
192.0788	1
199.8435	1
202.5875	1
230.3788	1
235.7593	1
255.2097	3
256.2142	5
273.2381	4
285.2568	2
302.2812	3
382.2617	1
395.3174	4
396.3249	625
402.3587	2
412.3367	5
413.3495	394
414.335	999
