Mass spectrum: Glycine; LC-ESI-ITFT; MS2; CE: 20;  [M+H]+
Name: Glycine
Class: Organic acids and derivatives; Carboxylic acids and derivatives; Amino acids, peptides, and analogues
Formula: C2H5NO2
Exact mass: 75.03203
SMILES: NCC(O)=O
InChI: InChI=1S/C2H5NO2/c3-1-2(4)5/h1,3H2,(H,4,5)
Instrument: Thermo Scientific Q-Exactive Focus
Instrument type: LC-ESI-ITFT
Ms type: MS2
Ion mode: POSITIVE
Ionization: ESI
Collision energy: 20
Column name: Acquity CSHC18
Retention time: 0.630 min
Base peak: 76.03930
Precursor m/z: 76.03930
Precursor type: [M+H]+
m/z	relative intensity
52.022	267
55.7701	274
58.0657	999
61.7037	290
63.1615	268
63.2709	259
65.5526	255
70.7866	268
74.4219	248
93.6468	268
