Mass spectrum: Quercetin 3-glucoside; LC-ESI-QTOF; MS2; CE: 50eV;  [M-H]-
Name: Quercetin 3-glucoside
Class: Flavonol
Formula: C21H20O12
Exact mass: 464.0955
SMILES: C1=CC(=C(C=C1C2=C(C(=O)C3=C(C=C(C=C3O2)O)O)OC4C(C(C(C(O4)CO)O)O)O)O)O
InChI: InChI=1S/C21H20O12/c22-6-13-15(27)17(29)18(30)21(32-13)33-20-16(28)14-11(26)4-8(23)5-12(14)31-19(20)7-1-2-9(24)10(25)3-7/h1-5,13,15,17-18,21-27,29-30H,6H2
Instrument: TIMS-TOF Pro, Bruker Daltonik; Elute UHPLC System, Bruker Daltonik
Instrument type: LC-ESI-QTOF
Ms type: MS2
Ion mode: NEGATIVE
Ionization: ESI
Collision energy: 50eV
Column name: Acquity CSHC18
Retention time: 5.198 min
Base peak: 463.0802
Precursor m/z: 463.0802
Precursor type: [M-H]-
Precursor intensity: 257223
m/z	relative intensity
43.0042	3
65.0029	13
66.9276	5
87.9895	5
107.0124	17
108.0211	27
109.0263	36
120.0196	4
121.0271	35
122.03	7
135.0064	21
136.0123	10
145.0332	4
146.0357	5
148.0125	38
148.431	4
149.0232	6
150.2112	4
151.0007	135
152.0041	15
152.9191	10
156.0488	4
160.0488	4
163.0006	18
164.0086	14
165.0158	3
167.023	3
168.7882	5
170.4763	7
171.0429	5
172.4211	10
173.6448	4
174.9541	6
176.4547	3
178.996	36
179.9974	6
181.1945	11
182.0551	5
187.0308	5
190.9976	4
192.0079	5
198.2874	4
201.0523	6
205.2209	3
211.0372	3
216.0392	4
222.088	6
223.0642	6
224.7298	8
226.046	3
227.0332	6
227.297	4
229.0476	8
229.7951	6
231.0924	6
231.9128	3
232.9705	6
234.1633	6
236.4102	5
238.6945	4
240.8724	6
241.6659	5
243.0257	24
244.0345	8
247.0859	9
250.8201	6
252.7917	4
255.0252	34
255.7736	4
256.0335	7
257.0866	7
258.3801	3
261.2061	7
270.012	7
271.0208	29
272.0237	10
276.0223	5
284.8144	8
299.0429	3
300.0226	949
300.1701	5
300.2548	3
300.4037	3
300.7167	3
300.8124	4
300.9628	3
301.0312	527
301.2912	3
301.4444	3
301.6087	4
302.0306	37
302.291	3
303.0316	8
304.0397	5
313.0294	4
320.5899	3
338.5875	4
343.0381	9
344.0347	3
425.0025	3
445.0987	3
462.0696	14
462.3035	7
462.5816	3
462.8342	9
463.0141	999
463.2567	7
463.3347	6
463.4128	8
463.5469	14
