Mass spectrum: 3,4-Dihydroxycinnamic acid; LC-ESI-QTOF; MS2; CE: 15;  [M-H]-
Name: 3,4-Dihydroxycinnamic acid
Class: NA
Formula: C9H8O4
Exact mass: 180.0423
SMILES: C1=CC(=C(C=C1C=CC(=O)O)O)O
InChI: InChI=1S/C9H8O4/c10-7-3-1-6(5-8(7)11)2-4-9(12)13/h1-5,10-11H,(H,12,13)
Instrument: Bruker MicrOTOF-Q
Instrument type: LC-ESI-QTOF
Ms type: MS2
Ion mode: NEGATIVE
Ionization: ESI
Collision energy: 15
Column name: Acquity CSHC18
Retention time: NA
Base peak: 179.0350
Precursor m/z: 179.0350
Precursor type: [M-H]-
m/z	relative intensity
45.5929	55
46.3192	106
48.1876	92
49.7525	69
52.3381	122
55.0955	114
58.7327	61
59.3623	122
61.2912	93
63.0492	58
67.1084	64
68.7108	86
70.1581	64
74.8672	106
76.7621	97
79.777	125
83.8937	86
85.5009	61
89.038	100
90.4845	83
93.0714	122
95.118	97
99.2648	195
100.6782	103
106.0466	80
107.0547	195
108.022	83
114.6274	83
117.0346	270
118.8725	67
120.4583	61
125.9745	187
133.055	93
134.0416	932
134.805	999
154.4824	64
179.0243	103
194.9716	67
236.9416	94
241.898	58
282.3126	89
287.4804	58
291.2849	67
319.5189	72
385.9589	69
483.1148	67
484.4329	75
506.3816	55
527.2564	80
619.9594	103
635.3875	72
637.7058	100
688.4576	80
711.6035	55
744.562	100
755.0525	89
786.6762	58
835.4727	86
866.9073	61
923.9667	64
926.9023	61
950.1245	83
