Mass spectrum: (20S)-20-(5-methyl-pyridyl-2)-5alpha-pregnan-3beta, 16alpha-diol; APCI-ITFT; MS2; CE: 35 CID;  [M+H]+
Name: (20S)-20-(5-methyl-pyridyl-2)-5alpha-pregnan-3beta, 16alpha-diol
Class: NA
Formula: C27H41NO2
Exact mass: 411.31373
SMILES: C[C@@]12[C@](CC[C@]3([H])[C@@]([H])2CC[C@@]4(C)[C@@]3([H])C[C@@H](O)[C@]4([H])[C@H](C)C5=NC=C(C)C=C5)([H])C[C@@H](O)CC1
InChI: InChI=1S/C27H41NO2/c1-16-5-8-23(28-15-16)17(2)25-24(30)14-22-20-7-6-18-13-19(29)9-11-26(18,3)21(20)10-12-27(22,25)4/h5,8,15,17-22,24-25,29-30H,6-7,9-14H2,1-4H3/t17-,18+,19+,20-,21+,22+,24-,25+,26+,27+/m1/s1
Instrument: Orbitrap Elite
Instrument type: APCI-ITFT
Ms type: MS2
Ion mode: POSITIVE
Ionization: APCI
Collision energy: 35 CID
Column name: Acquity CSHC18
Retention time: 0.103 min
Base peak: 412.32090
Precursor m/z: 412.32090
Precursor type: [M+H]+
Precursor intensity: 7410645
m/z	relative intensity
122.097	27
159.1178	1
161.1317	5
255.2092	22
273.2218	145
274.2243	1
394.3068	999
395.3132	18
