Mass spectrum: CYSTINE; LC-ESI-QFT; MS2; CE: 30eV;  [M-H]-
Name: CYSTINE
Class: NA
Formula: C6H12N2O4S2
Exact mass: 240.02385
SMILES: N[C@@H](CSSC[C@H](N)C(O)=O)C(O)=O
InChI: InChI=1S/C6H12N2O4S2/c7-3(5(9)10)1-13-14-2-4(8)6(11)12/h3-4H,1-2,7-8H2,(H,9,10)(H,11,12)/t3-,4-/m0/s1
Instrument: Q-Exactive Orbitrap, Thermo Scientfic; Ultimate 3000 HPLC, Thermo Scientfic
Instrument type: LC-ESI-QFT
Ms type: MS2
Ion mode: NEGATIVE
Ionization: ESI
Collision energy: 30eV
Column name: Acquity CSHC18
Retention time: 0.568 min
Base peak: 239.0166
Precursor m/z: 239.0166
Precursor type: [M-H]-
Precursor intensity: 162
m/z	relative intensity
56.1329	2
58.0291	2
59.3455	2
60.0276	3
64.9509	34
69.3888	3
71.9897	8
74.0054	520
75.0087	5
78.9575	780
86.0231	85
110.4244	3
112.2947	3
112.984	4
116.3392	3
117.9954	37
120.0109	999
121.0141	8
122.9199	6
126.4774	3
136.9082	141
151.9216	4
151.9832	112
152.9032	53
153.4721	3
162.5585	3
162.6764	3
164.9032	5
165.9106	5
166.3101	3
167.9169	8
171.3034	3
177.8987	6
178.8832	4
179.8904	13
180.8176	3
180.9216	3
181.9062	8
183.9119	6
194.9382	5
195.9458	197
196.8937	81
211.9409	75
239.9366	5
