Mass spectrum: ADENOSINE; LC-ESI-QTOF; MS2; CE: 20;  [M+H]+
Name: ADENOSINE
Class: NA
Formula: C10H13N5O4
Exact mass: 267.09675
SMILES: NC1=NC=NC2=C1N=CN2[C@@H]1O[C@H](CO)[C@@H](O)[C@H]1O
InChI: InChI=1S/C10H13N5O4/c11-8-5-9(13-2-12-8)15(3-14-5)10-7(18)6(17)4(1-16)19-10/h2-4,6-7,10,16-18H,1H2,(H2,11,12,13)/t4-,6-,7-,10-/m1/s1
Instrument: Agilent 6530Â Q-TOF LC/MS
Instrument type: LC-ESI-QTOF
Ms type: MS2
Ion mode: POSITIVE
Ionization: ESI
Collision energy: 20
Column name: NA
Retention time: 0.200 min
Base peak: 268.10165
Precursor m/z: 268.10165
Precursor type: [M+H]+
Precursor intensity: 46.5
m/z	relative intensity
41.0447	20
43.0344	21
45.0423	21
55.0373	22
57.0581	22
59.0536	22
61.0342	27
65.0147	32
67.031	37
69.0448	38
71.0304	42
73.0466	47
81.0397	50
82.0463	55
85.053	61
87.0519	61
92.0243	62
94.0503	64
97.0388	68
103.0456	77
109.053	93
115.0554	93
119.064	95
119.5022	102
133.0639	119
135.1212	164
135.4379	168
135.568	225
135.7666	232
136.98	314
138.1713	380
178.0681	999
268.1346	20
