Mass spectrum: N-Feruloyl Tyramine; LC-ESI-ITFT; MS2; CE: 35eV;  [M-H]-
Name: N-Feruloyl Tyramine
Class: Phenolamide
Formula: C18H19NO4
Exact mass: 313.1314
SMILES: COC1=C(C=CC(=C1)C=CC(=O)NCCC2=CC=C(C=C2)O)O
InChI: InChI=1S/C18H19NO4/c1-23-17-12-14(4-8-16(17)21)5-9-18(22)19-11-10-13-2-6-15(20)7-3-13/h2-9,12,20-21H,10-11H2,1H3,(H,19,22)
Instrument: LTQ Orbitrap XL, Thermo Scientfic; Dionex Ultimate 300
Instrument type: LC-ESI-ITFT
Ms type: MS2
Ion mode: NEGATIVE
Ionization: ESI
Collision energy: 35eV
Column name: Lichrospher C18 Column 250*4 5um, Interchim
Retention time: 51.97 min
Base peak: 312.1220
Precursor m/z: 312.1220
Precursor type: [M-H]-
m/z	relative intensity
135.2084	1
176.1985	1
178.2115	4
243.0577	1
312.2295	999
