Mass spectrum: 1-Dehydrotestosterone; LC-ESI-QTOF; MS2; CE: 10;  [M+H]+
Name: 1-Dehydrotestosterone
Class: NA
Formula: C19H26O2
Exact mass: 286.1933
SMILES: C[C@]12CC[C@H]3[C@H]([C@@H]1CC[C@@H]2O)CCC4=CC(=O)C=C[C@]34C
InChI: InChI=1S/C19H26O2/c1-18-9-7-13(20)11-12(18)3-4-14-15-5-6-17(21)19(15,2)10-8-16(14)18/h7,9,11,14-17,21H,3-6,8,10H2,1-2H3/t14-,15-,16-,17-,18-,19-/m0/s1
Instrument: Agilent 6560Â Ion Mobility Q-TOF LC/MS
Instrument type: LC-ESI-QTOF
Ms type: MS2
Ion mode: POSITIVE
Ionization: ESI
Collision energy: 10
Column name: Acquity CSHC18
Retention time: 0.200 min
Base peak: 287.2011
Precursor m/z: 287.2011
Precursor type: [M+H]+
Precursor intensity: 146.5
m/z	relative intensity
77.0388	136
79.0533	149
81.0703	161
91.0579	164
93.0724	170
95.0869	182
107.0847	191
109.1013	197
121.0807	203
135.1171	210
147.0968	221
149.1358	232
159.081	249
161.1329	286
173.102	294
179.1449	359
187.1106	384
269.1927	617
287.2041	999
