Mass spectrum: Prostaglandin J2; ESI-TOF; MS2; CE: 0.6458333;  [M+H]+
Name: Prostaglandin J2
Class: NA
Formula: C20H30O4
Exact mass: 334.21441
SMILES: CCCCC[C@@H](/C=C/[C@@H]1[C@H](C=CC1=O)C/C=C\CCCC(=O)O)O
InChI: InChI=1S/C20H30O4/c1-2-3-6-10-17(21)13-14-18-16(12-15-19(18)22)9-7-4-5-8-11-20(23)24/h4,7,12-18,21H,2-3,5-6,8-11H2,1H3,(H,23,24)/b7-4-,14-13+/t16-,17-,18+/m0/s1
Instrument: waters xevo g2 TOF
Instrument type: ESI-TOF
Ms type: MS2
Ion mode: POSITIVE
Ionization: ESI
Collision energy: 0.6458333
Column name: Acquity CSHC18
Retention time: 3.885 min
Base peak: 335.22241
Precursor m/z: 335.22241
Precursor type: [M+H]+
m/z	relative intensity
67.0532	310
69.0692	67
79.0541	223
81.0698	225
83.0856	71
91.0552	652
95.0852	286
97.0639	79
105.0709	612
107.0503	290
109.1016	733
117.0708	662
119.0853	352
121.0661	285
128.0621	180
129.0706	852
131.0859	108
133.0649	830
134.0678	53
135.0817	303
141.0702	477
143.0858	708
144.0897	86
145.0828	274
147.0813	543
154.0789	88
155.0856	601
156.0873	8
157.102	502
159.0819	379
161.0963	227
163.1097	82
167.0837	194
169.0994	999
170.1035	80
171.1166	391
173.0965	488
178.0835	8
178.5836	8
179.0839	85
181.1006	156
183.1173	559
185.0525	338
186.1003	58
189.1275	8
190.131	8
191.1398	46
197.131	255
199.1111	227
201.1258	237
203.1064	162
205.1211	8
207.1162	142
211.1111	195
215.1429	536
216.1471	64
217.1227	8
218.1258	8
225.126	93
229.1242	8
233.153	90
235.1343	8
236.1377	8
239.1759	101
247.0653	325
253.1934	226
257.1875	8
262.03	8
263.1773	8
271.203	109
272.2098	27
273.0915	384
281.1903	226
282.1909	81
288.0448	8
289.053	178
291.0497	8
299.1131	378
300.2026	171
301.2079	8
313.108	8
317.2106	816
318.2137	116
319.2153	8
332.333	8
335.22	8
336.1813	8
