Mass spectrum: Geraniol; APCI-ITFT; MS2; CE: 35 CID;  [M+H-H2O]+
Name: Geraniol
Class: NA
Formula: C10H18O
Exact mass: 154.13577
SMILES: CC(=CCCC(=CCO)C)C
InChI: InChI=1S/C10H18O/c1-9(2)5-4-6-10(3)7-8-11/h5,7,11H,4,6,8H2,1-3H3
Instrument: Orbitrap Elite
Instrument type: APCI-ITFT
Ms type: MS2
Ion mode: POSITIVE
Ionization: APCI
Collision energy: 35 CID
Column name: Acquity CSHC18
Retention time: 0.103 min
Base peak: 137.13200
Precursor m/z: 137.13200
Precursor type: [M+H-H2O]+
Precursor intensity: 542949900
m/z	relative intensity
77.0383	1
79.054	20
81.0697	434
91.054	2
93.0696	8
94.49	1
95.0534	1
95.0852	536
105.0443	1
107.0848	2
108.089	1
108.0933	1
109.101	53
121.1006	2
122.1089	1
135.1161	3
136.1198	2
137.132	999
137.1471	1
