Mass spectrum: Orotic acid; LC-ESI-QTOF; MS2; CE: 15 / 50;  [M-H]-
Name: Orotic acid
Class: NA
Formula: C5H4N2O4
Exact mass: 156.0171
SMILES: C1=C(NC(=O)NC1=O)C(=O)O
InChI: InChI=1S/C5H4N2O4/c8-3-1-2(4(9)10)6-5(11)7-3/h1H,(H,9,10)(H2,6,7,8,11)
Instrument: impact II
Instrument type: LC-ESI-QTOF
Ms type: MS2
Ion mode: NEGATIVE
Ionization: ESI
Collision energy: 15 / 50
Column name: Acquity CSHC18
Retention time: 0.660 min
Base peak: 155.0090
Precursor m/z: 155.0090
Precursor type: [M-H]-
m/z	relative intensity
68.0154	1
111.0199	999
111.0329	70
111.0585	3
111.0675	5
111.0858	8
111.0948	8
111.1048	12
111.1198	5
111.1417	2
111.1541	3
111.1632	4
111.1761	1
111.1912	2
111.2061	2
111.2104	2
111.2265	1
111.2408	1
111.2508	2
111.2659	1
111.2827	1
111.3057	1
111.3271	2
111.3585	2
111.3742	1
111.3901	1
111.4522	1
111.4678	1
111.4806	1
112.0232	70
155.0087	7
