Mass spectrum: Trimethylamine N-oxide; LC-ESI-ITFT; MS2; CE: 20;  [M+H]+
Name: Trimethylamine N-oxide
Class: Organic nitrogen compounds; Organonitrogen compounds; Aminoxides
Formula: C3H9NO
Exact mass: 75.06841
SMILES: C[N+](C)(C)[O-]
InChI: InChI=1S/C3H9NO/c1-4(2,3)5/h1-3H3
Instrument: Thermo Scientific Q-Exactive Focus
Instrument type: LC-ESI-ITFT
Ms type: MS2
Ion mode: POSITIVE
Ionization: ESI
Collision energy: 20
Column name: Acquity CSHC18
Retention time: 0.631 min
Base peak: 76.07569
Precursor m/z: 76.07569
Precursor type: [M+H]+
m/z	relative intensity
56.05	2
58.0657	999
59.0734	75
60.0449	22
61.0526	1
76.076	1
