Mass spectrum: O-acyl sugar AS1; LC-ESI-QTOF; MS2; CE: 22.5eV; [M+Na]+
Name: O-acyl sugar AS1
Class: O-acyl sugar
Formula: C25H42O14
Exact mass: 566.2574
SMILES: CC(CC)C(=O)O[C@@H]1[C@@H](OC(=O)CC)[C@H](O[C@H](CO)[C@H]1OC(=O)C(C)CC)O[C@]1(CO)O[C@H](CO)[C@@H](O)[C@@H]1O
InChI: InChI=1S/C25H42O14/c1-6-12(4)22(32)36-18-15(10-27)34-24(39-25(11-28)21(31)17(30)14(9-26)38-25)20(35-16(29)8-3)19(18)37-23(33)13(5)7-2/h12-15,17-21,24,26-28,30-31H,6-11H2,1-5H3/t12?,13?,14-,15-,17-,18-,19+,20-,21+,24-,25+/m1/s1
Instrument: Microtof-q MS
Instrument type: LC-ESI-QTOF
Ms type: MS2
Ion mode: POSITIVE
Ionization: ESI
Collision energy: 22.5eV
Column name: Acquity CSH C18 column (particle size 1.7 μm, column length 2.1 × 50 mm) (Waters)
Retention time: NA
Base peak: 589.2477
Precursor m/z: 589.2477
Precursor type: [M+Na]+
m/z	relative intensity
185.0404	33
325.1317	59
339.1383	44
427.1935	999
589.2477	147
