Mass spectrum: Progesterone; LC-ESI-QFT; MS2; CE: 30eV;  [M+H]+
Name: Progesterone
Class: NA
Formula: C21H30O2
Exact mass: 314.22458
SMILES: [H][C@@]12CC[C@H](C(C)=O)[C@@]1(C)CC[C@@]1([H])[C@@]2([H])CCC2=CC(=O)CC[C@]12C
InChI: InChI=1S/C21H30O2/c1-13(22)17-6-7-18-16-5-4-14-12-15(23)8-10-20(14,2)19(16)9-11-21(17,18)3/h12,16-19H,4-11H2,1-3H3/t16-,17+,18-,19-,20-,21+/m0/s1
Instrument: Q-Exactive Orbitrap, Thermo Scientfic; Ultimate 3000 HPLC, Thermo Scientfic
Instrument type: LC-ESI-QFT
Ms type: MS2
Ion mode: POSITIVE
Ionization: ESI
Collision energy: 30eV
Column name: Acquity CSHC18
Retention time: 11.378 min
Base peak: 315.2319
Precursor m/z: 315.2319
Precursor type: [M+H]+
Precursor intensity: 183
m/z	relative intensity
67.081	65
123.0987	71
137.0987	112
149.1145	172
163.1297	255
175.13	264
187.13	394
189.1457	406
201.1454	453
215.1613	552
255.192	762
269.2084	999
