Mass spectrum: L-Asparagine; LC-ESI-ITFT; MS2; CE: 30;  [M-H]-
Name: L-Asparagine
Class: Organic acids and derivatives; Carboxylic acids and derivatives; Amino acids, peptides, and analogues
Formula: C4H8N2O3
Exact mass: 132.05349
SMILES: N[C@@H](CC(N)=O)C(O)=O
InChI: InChI=1S/C4H8N2O3/c5-2(4(8)9)1-3(6)7/h2H,1,5H2,(H2,6,7)(H,8,9)/t2-/m0/s1
Instrument: Thermo Scientific Q-Exactive Focus
Instrument type: LC-ESI-ITFT
Ms type: MS2
Ion mode: NEGATIVE
Ionization: ESI
Collision energy: 30
Column name: Acquity CSHC18
Retention time: 0.927 min
Base peak: 131.04622
Precursor m/z: 131.04622
Precursor type: [M-H]-
m/z	relative intensity
55.0013	91
58.0286	553
72.0079	999
81.6802	108
82.8345	117
90.6958	90
92.2796	90
95.2477	91
106.9999	94
143.8822	93
