Mass spectrum: 17-phenyl trinor Prostaglandin A2; ESI-TOF; MS2; CE: 6.0000000;  [M+H]+
Name: 17-phenyl trinor Prostaglandin A2
Class: NA
Formula: C23H28O4
Exact mass: 368.19876
SMILES: O=C1[C@H](C/C=C\CCCC(O)=O)[C@@H](/C=C/[C@@H](O)CCC2=CC=CC=C2)C=C1
InChI: InChI=1S/C23H28O4/c24-20(15-12-18-8-4-3-5-9-18)16-13-19-14-17-22(25)21(19)10-6-1-2-7-11-23(26)27/h1,3-6,8-9,13-14,16-17,19-21,24H,2,7,10-12,15H2,(H,26,27)/b6-1-,16-13+/t19-,20-,21+/m0/s1
Instrument: waters xevo g2 TOF
Instrument type: ESI-TOF
Ms type: MS2
Ion mode: POSITIVE
Ionization: ESI
Collision energy: 6.0000000
Column name: Acquity CSHC18
Retention time: 3.695 min
Base peak: 369.20676
Precursor m/z: 369.20676
Precursor type: [M+H]+
m/z	relative intensity
104.9636	2
117.0712	19
121.0654	4
133.0661	2
143.0866	3
145.0656	10
162.9746	21
167.0782	30
168.0843	2
181.1013	2
185.0967	3
191.0968	12
195.0886	83
195.5772	14
196.0827	3
203.1077	12
204.084	15
205.1096	1
211.1128	6
219.1165	2
223.123	2
229.1227	15
237.1273	9
249.1282	87
299.096	95
315.1742	65
333.1842	999
334.1901	271
335.191	36
336.188	2
351.1956	659
352.1991	178
353.2006	17
369.2029	19
370.1698	91
370.6682	17
371.1727	7
