Mass spectrum: Liothyronine; ESI-TOF; MS2; CE: 6.0000000;  [M+H]+
Name: Liothyronine
Class: NA
Formula: C15H12I3NO4
Exact mass: 650.79005
SMILES: NC(CC1=CC(I)=C(OC2=CC=C(O)C(I)=C2)C(I)=C1)C(O)=O
InChI: InChI=1S/C15H12I3NO4/c16-9-6-8(1-2-13(9)20)23-14-10(17)3-7(4-11(14)18)5-12(19)15(21)22/h1-4,6,12,20H,5,19H2,(H,21,22)
Instrument: waters xevo g2 TOF
Instrument type: ESI-TOF
Ms type: MS2
Ion mode: POSITIVE
Ionization: ESI
Collision energy: 6.0000000
Column name: Acquity CSHC18
Retention time: 3.225 min
Base peak: 651.79805
Precursor m/z: 651.79805
Precursor type: [M+H]+
m/z	relative intensity
121.0474	1
149.0244	10
161.0967	1
163.9774	2
184.9865	4
193.0497	4
224.0523	5
225.1064	1
243.1011	4
246.0656	8
246.568	2
259.0945	4
281.1021	11
295.1524	1
343.1875	1
403.1963	5
409.1497	7
425.1772	12
426.1802	2
429.1179	4
431.1323	22
432.1348	4
447.103	1
453.1757	350
454.1791	92
455.188	33
470.2023	20
471.2034	3
473.1444	105
474.1476	30
475.1578	503
476.161	131
477.1633	27
478.1682	2
491.1308	28
492.1355	6
493.1338	2
496.1722	12
497.1345	5
507.1845	2
507.8653	4
511.1002	4
512.2507	2
526.2631	2
537.1281	3
553.1056	1
554.1174	2
555.103	1
581.1075	4
584.1182	6
585.1201	1
604.0888	1
605.792	56
606.7942	8
634.77	9
635.7712	1
650.7947	5
651.7969	999
652.7994	179
