Mass spectrum: Agmatine; LC-ESI-ITFT; MS2; CE: 45eV;  [M+H]+
Name: Agmatine
Class: polyamine
Formula: C5H14N4
Exact mass: 130.1218
SMILES: C(CCN=C(N)N)CN
InChI: InChI=1S/C5H14N4/c6-3-1-2-4-9-5(7)8/h1-4,6H2,(H4,7,8,9)
Instrument: LTQ Orbitrap XL, Thermo Scientfic; Dionex Ultimate 300
Instrument type: LC-ESI-ITFT
Ms type: MS2
Ion mode: POSITIVE
Ionization: ESI
Collision energy: 45eV
Column name: Alltima C18
Retention time: 1.63 min
Base peak: 131.1274
Precursor m/z: 131.1274
Precursor type: [M+H]+
m/z	relative intensity
59.8816	547
60.6272	1
71.9116	372
88.9087	3
96.9889	3
113.9334	999
