Mass spectrum: D-Xylose; ESI-TOF; MS2; CE: 6.0000000;  [M+H]+
Name: D-Xylose
Class: NA
Formula: C5H10O5
Exact mass: 150.05282
SMILES: OC1COC(O)C(O)C1O
InChI: InChI=1S/C5H10O5/c6-2-1-10-5(9)4(8)3(2)7/h2-9H,1H2
Instrument: waters xevo g2 TOF
Instrument type: ESI-TOF
Ms type: MS2
Ion mode: POSITIVE
Ionization: ESI
Collision energy: 6.0000000
Column name: Acquity CSHC18
Retention time: 0.556 min
Base peak: 151.06082
Precursor m/z: 151.06082
Precursor type: [M+H]+
m/z	relative intensity
130.0086	28
130.0087	37
135.9925	37
135.9929	21
137.9881	999
143.9594	36
154.9673	100
157.068	21
163.9764	10
173.0421	328
183.988	40
185.9872	11
203.9725	390
204.9783	38
261.9969	16
263.9938	433
264.9977	50
265.9974	8
302.1969	13
323.097	15
354.027	26
