Mass spectrum: Rhamnose; ESI-TOF; MS2; CE: 6.0000000;  [M+H]+
Name: Rhamnose
Class: NA
Formula: C6H12O5
Exact mass: 164.06847
SMILES: CC1OC(O)C(O)C(O)C1O
InChI: InChI=1S/C6H12O5/c1-2-3(7)4(8)5(9)6(10)11-2/h2-10H,1H3
Instrument: waters xevo g2 TOF
Instrument type: ESI-TOF
Ms type: MS2
Ion mode: POSITIVE
Ionization: ESI
Collision energy: 6.0000000
Column name: Acquity CSHC18
Retention time: 0.579 min
Base peak: 165.07647
Precursor m/z: 165.07647
Precursor type: [M+H]+
m/z	relative intensity
126.9483	2
138.9912	47
140.9642	2
144.9593	2
171.0853	38
183.983	2
187.0584	999
197.9623	2
199.9784	297
200.9841	2
211.9784	2
217.9886	152
245.9833	120
258.1694	41
263.9947	78
265.0012	52
278.0091	274
279.0157	42
292.025	259
293.0273	33
351.1276	65
353.0995	30
382.0557	91
383.0609	31
