Mass spectrum: PGE1; ESI-TOF; MS2; CE: 6.0000000;  [M+H]+
Name: PGE1
Class: NA
Formula: C20H34O5
Exact mass: 354.24062
SMILES: [H]OC(=O)C([H])([H])C([H])([H])C([H])([H])C([H])([H])C([H])([H])C([H])([H])C1([H])(C(=O)C([H])([H])C([H])(O[H])C1([H])(C([H])=C([H])C([H])(O[H])C([H])([H])C([H])([H])C([H])([H])C([H])([H])C([H])([H])[H]))
InChI: InChI=1S/C20H34O5/c1-2-3-6-9-15(21)12-13-17-16(18(22)14-19(17)23)10-7-4-5-8-11-20(24)25/h12-13,15-17,19,21,23H,2-11,14H2,1H3,(H,24,25)
Instrument: waters xevo g2 TOF
Instrument type: ESI-TOF
Ms type: MS2
Ion mode: POSITIVE
Ionization: ESI
Collision energy: 6.0000000
Column name: Acquity CSHC18
Retention time: 4.395 min
Base peak: 355.24862
Precursor m/z: 355.24862
Precursor type: [M+H]+
m/z	relative intensity
142.0703	3
145.1011	8
159.1171	7
179.0909	7
186.1356	3
188.0971	6
189.1278	17
191.1427	30
194.125	3
199.1475	8
203.1436	42
205.1217	10
217.1242	8
227.1467	4
239.1792	4
245.1531	11
247.2089	15
253.0752	8
255.2117	30
256.2123	6
267.1059	2
273.2219	72
274.2259	13
275.2015	85
276.125	11
277.0633	2
283.2062	94
284.2089	21
289.2172	89
290.2208	18
291.232	114
292.2362	22
301.2166	999
302.2197	233
307.1235	5
311.1838	5
319.1746	412
320.2319	198
333.2429	38
334.2479	6
337.2371	575
338.2399	127
351.2485	5
356.2107	188
356.7128	83
357.2151	22
