Mass spectrum: Scyllitol; ESI-TOF; MS2; CE: 6.0000000;  [M+H]+
Name: Scyllitol
Class: NA
Formula: C6H12O6
Exact mass: 180.06339
SMILES: OC1C(O)C(O)C(O)C(O)C1O
InChI: InChI=1S/C6H12O6/c7-1-2(8)4(10)6(12)5(11)3(1)9/h1-12H
Instrument: waters xevo g2 TOF
Instrument type: ESI-TOF
Ms type: MS2
Ion mode: POSITIVE
Ionization: ESI
Collision energy: 6.0000000
Column name: Acquity CSHC18
Retention time: 0.545 min
Base peak: 181.07139
Precursor m/z: 181.07139
Precursor type: [M+H]+
m/z	relative intensity
69.0348	7
71.0508	5
81.034	173
82.038	6
84.995	8
96.9616	109
99.0446	24
101.0235	2
102.0343	22
109.0288	236
110.032	14
124.9566	6
126.9936	37
128.0438	4
139.9636	5
145.05	119
146.0572	6
149.961	21
151.0398	9
159.0636	2
177.0773	2
180.9823	38
186.0764	28
187.0485	17
190.0232	1
194.1172	6
197.9618	23
203.053	999
204.0565	39
205.0614	16
220.5587	48
222.9674	4
229.5447	2
230.543	1
234.9922	1
251.0356	12
253.0005	7
258.1699	5
265.0222	9
273.0141	2
275.0097	4
279.0356	2
280.995	45
282.0868	12
282.9962	18
284.9922	6
290.043	173
290.5793	75
291.0791	22
291.5818	3
294.0036	30
295.0097	4
297.5657	7
298.0624	75
298.5649	16
299.0635	56
299.5657	11
300.0621	18
306.0032	1
321.0188	3
323.0107	1
324.0159	18
325.023	4
326.0306	1
329.9691	7
337.0146	1
340.0471	4
361.1346	240
362.1377	34
367.1103	4
383.1159	8
385.0924	79
386.094	9
405.098	6
407.0738	1
410.0506	5
412.0501	45
413.0568	14
414.0462	714
414.5503	15
415.0512	219
415.5461	6
416.0534	45
416.5433	1
417.055	35
419.0485	7
445.0859	10
531.0422	3
827.08	2
