Mass spectrum: N-METHYLASPARTATE; LC-ESI-QFT; MS2; CE: 30eV;  [M+H]+
Name: N-METHYLASPARTATE
Class: NA
Formula: C5H9NO4
Exact mass: 147.05316
SMILES: CN[C@H](CC(O)=O)C(O)=O
InChI: InChI=1S/C5H9NO4/c1-6-3(5(9)10)2-4(7)8/h3,6H,2H2,1H3,(H,7,8)(H,9,10)/t3-/m1/s1
Instrument: Q-Exactive Orbitrap, Thermo Scientfic; Ultimate 3000 HPLC, Thermo Scientfic
Instrument type: LC-ESI-QFT
Ms type: MS2
Ion mode: POSITIVE
Ionization: ESI
Collision energy: 30eV
Column name: Acquity CSHC18
Retention time: 0.614 min
Base peak: 148.0604
Precursor m/z: 148.0604
Precursor type: [M+H]+
Precursor intensity: 143
m/z	relative intensity
53.3594	2
53.5462	3
53.8497	2
55.7503	3
57.0397	2
58.0659	4
60.0452	22
61.1062	3
67.4382	3
73.8103	3
84.0451	202
87.1952	3
89.037	4
89.0434	13
90.0075	3
93.9506	3
102.0556	999
103.059	8
107.9511	4
109.4001	3
123.197	3
130.0292	5
130.0502	31
130.967	5
140.194	3
142.5728	3
148.0608	442
148.0971	19
148.8716	3
148.9774	7
149.0237	40
149.0644	6
151.5433	3
157.7118	3
159.3941	3
