Mass spectrum: Baicalein; LC-ESI-QTOF; MS2; CE: 50eV;  [M+H]+
Name: Baicalein
Class: Flavone
Formula: C15H10O5
Exact mass: 270.0528
SMILES: C1=CC=C(C=C1)C2=CC(=O)C3=C(O2)C=C(C(=C3O)O)O
InChI: InChI=1S/C15H10O5/c16-9-6-11(8-4-2-1-3-5-8)20-12-7-10(17)14(18)15(19)13(9)12/h1-7,17-19H
Instrument: TIMS-TOF Pro, Bruker Daltonik; Elute UHPLC System, Bruker Daltonik
Instrument type: LC-ESI-QTOF
Ms type: MS2
Ion mode: POSITIVE
Ionization: ESI
Collision energy: 50eV
Column name: Acquity CSHC18
Retention time: 7.659 min
Base peak: 271.0566
Precursor m/z: 271.0566
Precursor type: [M+H]+
Precursor intensity: 605994.5
m/z	relative intensity
38.9714	1
82.8985	1
95.0125	16
103.0522	5
105.0331	1
123.008	22
124.0113	1
129.0276	1
139.0536	1
141.0683	3
151.0513	5
169.014	7
170.0158	1
207.052	1
211.0343	1
253.0495	9
254.055	1
259.3833	1
270.9103	1
270.986	2
271.0226	13
271.0566	999
271.5505	4
