Mass spectrum: Methionine; LC-ESI-QTOF; MS2; CE: 60;  [M+H]+
Name: Methionine
Class: NA
Formula: C5H11NO2S
Exact mass: 149.05105
SMILES: CSCCC(C(=O)O)N
InChI: InChI=1S/C5H11NO2S/c1-9-3-2-4(6)5(7)8/h4H,2-3,6H2,1H3,(H,7,8)
Instrument: impact II
Instrument type: LC-ESI-QTOF
Ms type: MS2
Ion mode: POSITIVE
Ionization: ESI
Collision energy: 60
Column name: Acquity CSHC18
Retention time: 1.792 min
Base peak: 150.05820
Precursor m/z: 150.05820
Precursor type: [M+H]+
m/z	relative intensity
44.9799	476
45.9877	903
46.9954	173
56.0502	533
61.0113	999
