Mass spectrum: 6,7-dihydroxy-isoflavon; LC-ESI-QTOF; MS2; CE: 50eV;  [M-H]-
Name: 6,7-dihydroxy-isoflavon
Class: Isoflavone
Formula: C15H10O4
Exact mass: 254.0579
SMILES: C1=CC=C(C=C1)C2=COC3=CC(=C(C=C3C2=O)O)O
InChI: InChI=1S/C15H10O4/c16-12-6-10-14(7-13(12)17)19-8-11(15(10)18)9-4-2-1-3-5-9/h1-8,16-17H
Instrument: TIMS-TOF Pro, Bruker Daltonik; Elute UHPLC System, Bruker Daltonik
Instrument type: LC-ESI-QTOF
Ms type: MS2
Ion mode: NEGATIVE
Ionization: ESI
Collision energy: 50eV
Column name: Acquity CSHC18
Retention time: 8.831 min
Base peak: 253.0475
Precursor m/z: 253.0475
Precursor type: [M-H]-
Precursor intensity: 2194.89
m/z	relative intensity
22.4671	70
38.723	91
63.0236	106
65.0016	140
91.9873	69
107.0124	53
143.0482	66
253.045	999
