Mass spectrum: Reserpine; LC-ESI-QTOF; MS2; CE: 32.19;  [M+H]+
Name: Reserpine
Class: NA
Formula: C33H40N2O9
Exact mass: 608.2734
SMILES: COC1C(CC2CN3CCC4=C(C3CC2C1C(=O)OC)NC5=C4C=CC(=C5)OC)OC(=O)C6=CC(=C(C(=C6)OC)OC)OC
InChI: InChI=1S/C33H40N2O9/c1-38-19-7-8-20-21-9-10-35-16-18-13-27(44-32(36)17-11-25(39-2)30(41-4)26(12-17)40-3)31(42-5)28(33(37)43-6)22(18)15-24(35)29(21)34-23(20)14-19/h7-8,11-12,14,18,22,24,27-28,31,34H,9-10,13,15-16H2,1-6H3
Instrument: Bruker MicrOTOF-Q
Instrument type: LC-ESI-QTOF
Ms type: MS2
Ion mode: POSITIVE
Ionization: ESI
Collision energy: 32.19
Column name: Acquity CSHC18
Retention time: NA
Base peak: 609.2807
Precursor m/z: 609.2807
Precursor type: [M+H]+
m/z	relative intensity
174.0887	25
175.0905	28
192.0992	38
195.0625	40
196.0668	49
204.0973	54
224.1259	57
236.1244	61
336.1557	61
348.1589	63
365.1824	66
366.1824	118
368.1721	141
397.2058	157
398.2102	176
436.1952	190
448.1888	231
449.1928	420
609.2725	521
610.2797	999
