Mass spectrum: Lauric acid; LC-ESI-QTOF; MS2; CE: 15;  [M-H]-
Name: Lauric acid
Class: NA
Formula: C12H24O2
Exact mass: 200.1776
SMILES: CCCCCCCCCCCC(=O)O
InChI: InChI=1S/C12H24O2/c1-2-3-4-5-6-7-8-9-10-11-12(13)14/h2-11H2,1H3,(H,13,14)
Instrument: Bruker MicrOTOF-Q
Instrument type: LC-ESI-QTOF
Ms type: MS2
Ion mode: NEGATIVE
Ionization: ESI
Collision energy: 15
Column name: Acquity CSHC18
Retention time: NA
Base peak: 199.1704
Precursor m/z: 199.1704
Precursor type: [M-H]-
m/z	relative intensity
46.6987	11
55.4833	12
78.9868	16
90.1313	12
94.3642	6
95.5557	13
95.9451	8
101.9691	7
108.027	12
112.572	8
130.7118	8
141.4742	6
149.8368	11
154.7171	8
159.4748	6
181.1564	16
184.4336	9
198.5215	14
198.5999	11
199.0429	16
199.169	999
199.2948	8
199.416	9
199.638	6
199.6892	7
199.9135	8
200.1743	147
200.3582	9
204.4629	9
228.882	7
307.696	11
361	11
364.9435	15
448.5885	6
469.1621	12
548.2144	6
589.1413	12
650.5311	11
688.2427	11
815.8141	7
904.7842	8
921.6615	9
967.8436	11
