Mass spectrum: L-Asparagine; LC-ESI-ITFT; MS2; CE: 30;  [M+H]+
Name: L-Asparagine
Class: Organic acids and derivatives; Carboxylic acids and derivatives; Amino acids, peptides, and analogues
Formula: C4H8N2O3
Exact mass: 132.05349
SMILES: N[C@@H](CC(N)=O)C(O)=O
InChI: InChI=1S/C4H8N2O3/c5-2(4(8)9)1-3(6)7/h2H,1,5H2,(H2,6,7)(H,8,9)/t2-/m0/s1
Instrument: Thermo Scientific Q-Exactive Focus
Instrument type: LC-ESI-ITFT
Ms type: MS2
Ion mode: POSITIVE
Ionization: ESI
Collision energy: 30
Column name: Acquity CSHC18
Retention time: 0.914 min
Base peak: 133.06078
Precursor m/z: 133.06078
Precursor type: [M+H]+
m/z	relative intensity
50.7533	22
54.3845	22
70.0292	178
74.0241	999
84.9145	23
91.162	22
100.0176	23
100.6135	21
124.1877	23
124.8107	26
