Mass spectrum: N-Acetyl-D-glucosamine; ESI-TOF; MS2; CE: 0.6458333;  [M+H]+
Name: N-Acetyl-D-glucosamine
Class: NA
Formula: C8H15NO6
Exact mass: 221.08994
SMILES: CC(=O)NC1C(O)OC(CO)C(O)C1O
InChI: InChI=1S/C8H15NO6/c1-3(11)9-5-7(13)6(12)4(2-10)15-8(5)14/h4-8,10,12-14H,2H2,1H3,(H,9,11)
Instrument: waters xevo g2 TOF
Instrument type: ESI-TOF
Ms type: MS2
Ion mode: POSITIVE
Ionization: ESI
Collision energy: 0.6458333
Column name: Acquity CSHC18
Retention time: 0.570 min
Base peak: 222.09794
Precursor m/z: 222.09794
Precursor type: [M+H]+
m/z	relative intensity
84.0449	127
96.0448	469
98.0602	92
99.0449	18
101.9408	23
108.0446	36
109.0288	50
113.9641	105
126.0555	226
128.987	22
138.0555	999
139.0585	47
140.0017	25
141.9593	151
144.013	155
151.9225	13
154.9684	23
155.9743	87
156.9819	40
168.0662	55
172.8638	31
186.0771	35
197.9853	25
204.0875	66
214.9889	41
215.996	65
222.0979	32
