Mass spectrum: 6-OH-Kae-3,6,4'-OMe; LC-ESI-QTOF; MS2; CE: 50eV;  [M+H]+
Name: 6-OH-Kae-3,6,4'-OMe
Class: Flavonol
Formula: C18H16O7
Exact mass: 344.0896
SMILES: OC1=CC2=C(C(C(OC)=C(C3=CC=C(OC)C=C3)O2)=O)C(O)=C1OC
InChI: InChI=1S/C18H16O7/c1-22-10-6-4-9(5-7-10)16-18(24-3)15(21)13-12(25-16)8-11(19)17(23-2)14(13)20/h4-8,19-20H,1-3H3
Instrument: TIMS-TOF Pro, Bruker Daltonik; Elute UHPLC System, Bruker Daltonik
Instrument type: LC-ESI-QTOF
Ms type: MS2
Ion mode: POSITIVE
Ionization: ESI
Collision energy: 50eV
Column name: Acquity CSHC18
Retention time: 9.560 min
Base peak: 345.0941
Precursor m/z: 345.0941
Precursor type: [M+H]+
Precursor intensity: 1718159
m/z	relative intensity
22.1416	30
30.5859	46
58.694	7
68.3585	40
112.0156	32
128.0583	27
135.0438	141
143.0447	30
145.0652	63
157.0657	20
161.0617	51
166.0428	37
170.0183	31
185.0347	26
189.0402	25
201.0554	106
213.0492	65
227.0346	53
227.9919	33
230.0521	44
240.9571	4
242.0617	17
251.2336	35
253.05	222
256.0726	75
259.0569	69
281.0425	173
283.0596	121
284.0695	109
287.0268	75
287.0536	451
288.0572	126
297.023	17
300.066	55
312.0649	539
313.0691	73
315.0289	41
315.0486	168
328.0902	26
329.0623	322
330.0416	79
330.0733	999
331.0743	70
335.0673	22
345.0322	66
345.0735	326
