Mass spectrum: D-Glucose; LC-ESI-QTOF; MS2; CE: -10, -35, -60V;  [M-H]-
Name: D-Glucose
Class: NA
Formula: C6H12O6
Exact mass: 180.0634
SMILES: C(C1C(C(C(C(O1)O)O)O)O)O
InChI: InChI=1S/C6H12O6/c7-1-2-3(8)4(9)5(10)6(11)12-2/h2-11H,1H2
Instrument: TripleToF 5600; Sciex
Instrument type: LC-ESI-QTOF
Ms type: MS2
Ion mode: NEGATIVE
Ionization: ESI
Collision energy: -10, -35, -60V
Column name: Acquity CSHC18
Retention time: 0.625 min
Base peak: 179.0567
Precursor m/z: 179.0567
Precursor type: [M-H]-
Precursor intensity: 96968
m/z	relative intensity
71.0136	999
