Mass spectrum: 2,5-Furandicarboxylic acid; LC-ESI-QTOF; MS2; CE: -10, -35, -60V;  [M-H]-
Name: 2,5-Furandicarboxylic acid
Class: NA
Formula: C6H4O5
Exact mass: 156.0059
SMILES: C1=C(OC(=C1)C(=O)O)C(=O)O
InChI: InChI=1S/C6H4O5/c7-5(8)3-1-2-4(11-3)6(9)10/h1-2H,(H,7,8)(H,9,10)
Instrument: TripleToF 5600; Sciex
Instrument type: LC-ESI-QTOF
Ms type: MS2
Ion mode: NEGATIVE
Ionization: ESI
Collision energy: -10, -35, -60V
Column name: Acquity CSHC18
Retention time: 10.730 min
Base peak: 154.9993
Precursor m/z: 154.9993
Precursor type: [M-H]-
Precursor intensity: 142169.8
m/z	relative intensity
67.0168	41
83.0138	62
111.0088	999
144.0706	62
154.9989	601
