Mass spectrum: L-Alloisoleucine; ESI-TOF; MS2; CE: 6.0000000;  [M+H]+
Name: L-Alloisoleucine
Class: NA
Formula: C6H13NO2
Exact mass: 131.09463
SMILES: CCC(C)C(N)C(O)=O
InChI: InChI=1S/C6H13NO2/c1-3-4(2)5(7)6(8)9/h4-5H,3,7H2,1-2H3,(H,8,9)
Instrument: waters xevo g2 TOF
Instrument type: ESI-TOF
Ms type: MS2
Ion mode: POSITIVE
Ionization: ESI
Collision energy: 6.0000000
Column name: Acquity CSHC18
Retention time: 0.596 min
Base peak: 132.10263
Precursor m/z: 132.10263
Precursor type: [M+H]+
m/z	relative intensity
86.0973	328
114.9714	37
114.9715	48
130.0077	24
132.1026	999
133.1058	34
137.9882	242
145.0184	19
149.9616	21
160.9897	20
258.1714	22
