Mass spectrum: 3-Methylhistamine; ESI-TOF; MS2; CE: 0.6458333;  [M+H]+
Name: 3-Methylhistamine
Class: NA
Formula: C6H11N3
Exact mass: 125.09530
SMILES: CN1C=NC=C1CCN
InChI: InChI=1S/C6H11N3/c1-9-5-8-4-6(9)2-3-7/h4-5H,2-3,7H2,1H3
Instrument: waters xevo g2 TOF
Instrument type: ESI-TOF
Ms type: MS2
Ion mode: POSITIVE
Ionization: ESI
Collision energy: 0.6458333
Column name: Acquity CSHC18
Retention time: 0.449 min
Base peak: 126.10330
Precursor m/z: 126.10330
Precursor type: [M+H]+
m/z	relative intensity
56.944	2
68.051	46
81.0456	20
82.066	16
91.9565	3
95.061	287
96.0692	999
97.019	273
109.0768	115
110.0809	211
111.0906	29
116.9647	7
123.0302	54
124.0934	8
126.1996	31
127.1062	83
137.9879	5
140.042	44
148.0197	3
152.9786	7
155.0126	19
170.0222	7
180.0206	38
182.0347	163
184.0368	40
188.0256	21
190.032	97
192.0287	54
194.0284	31
198.0346	5
206.9933	2
223.9938	15
225.029	3
226.0281	115
227.0307	11
228.0092	4
230.8911	6
234.0219	62
235.022	3
235.9446	17
237.0188	6
238.0177	23
261.0652	43
263.0609	16
276.0876	11
287.9819	4
305.1021	25
313.1193	9
313.9296	2
351.1232	14
353.1226	12
356.053	1
359.1184	7
361.1126	1
370.1119	5
