Mass spectrum: 1-oleoyl-N-heptadecanoyl-D-erythro-sphingosine; ESI-TOF; MS2; CE: 0.6458333;  [M+H]+
Name: 1-oleoyl-N-heptadecanoyl-D-erythro-sphingosine
Class: NA
Formula: C53H101NO4
Exact mass: 815.77306
SMILES: [H]OC([H])(C([H])=C([H])C([H])([H])C([H])([H])C([H])([H])C([H])([H])C([H])([H])C([H])([H])C([H])([H])C([H])([H])C([H])([H])C([H])([H])C([H])([H])C([H])([H])C([H])([H])[H])C([H])(N([H])C(=O)C([H])([H])C([H])([H])C([H])([H])C([H])([H])C([H])([H])C([H])([H])C([H])([H])C([H])([H])C([H])([H])C([H])([H])C([H])([H])C([H])([H])C([H])([H])C([H])([H])C([H])([H])C([H])([H])[H])C([H])([H])OC(=O)C([H])([H])C([H])([H])C([H])([H])C([H])([H])C([H])([H])C([H])([H])C([H])([H])C([H])=C([H])C([H])([H])C([H])([H])C([H])([H])C([H])([H])C([H])([H])C([H])([H])C([H])([H])C([H])([H])[H]
InChI: InChI=1S/C53H101NO4/c1-4-7-10-13-16-19-22-25-27-30-33-36-39-42-45-48-53(57)58-49-50(51(55)46-43-40-37-34-31-28-24-21-18-15-12-9-6-3)54-52(56)47-44-41-38-35-32-29-26-23-20-17-14-11-8-5-2/h25,27,43,46,50-51,55H,4-24,26,28-42,44-45,47-49H2,1-3H3,(H,54,56)
Instrument: waters xevo g2 TOF
Instrument type: ESI-TOF
Ms type: MS2
Ion mode: POSITIVE
Ionization: ESI
Collision energy: 0.6458333
Column name: Acquity CSHC18
Retention time: 13.721 min
Base peak: 816.78106
Precursor m/z: 816.78106
Precursor type: [M+H]+
m/z	relative intensity
97.9694	13
97.9695	11
97.9696	11
97.9697	13
214.9181	40
214.9182	64
214.9184	27
214.9186	25
264.2694	433
321.211	88
427.8687	11
516.5149	274
517.5173	100
534.5255	31
798.7715	733
799.7764	415
800.7779	135
816.7818	194
817.7835	114
818.7871	31
819.7936	5
824.7144	17
835.7575	96
836.2574	110
836.7595	84
837.2602	13
838.7618	999
839.7665	591
840.7689	154
854.737	34
854.7419	48
855.7379	17
855.7433	21
870.7042	23
871.705	11
872.7011	17
900.7335	95
901.7357	35
