Mass spectrum: L-Aspartic acid; LC-ESI-ITFT; MS2; CE: 30;  [M-H]-
Name: L-Aspartic acid
Class: Organic acids and derivatives; Carboxylic acids and derivatives; Amino acids, peptides, and analogues
Formula: C4H7NO4
Exact mass: 133.03751
SMILES: N[C@@H](CC(O)=O)C(O)=O
InChI: InChI=1S/C4H7NO4/c5-2(4(8)9)1-3(6)7/h2H,1,5H2,(H,6,7)(H,8,9)/t2-/m0/s1
Instrument: Thermo Scientific Q-Exactive Focus
Instrument type: LC-ESI-ITFT
Ms type: MS2
Ion mode: NEGATIVE
Ionization: ESI
Collision energy: 30
Column name: Acquity CSHC18
Retention time: 0.926 min
Base peak: 132.03023
Precursor m/z: 132.03023
Precursor type: [M-H]-
m/z	relative intensity
71.0126	999
72.0078	164
73.5824	79
78.9284	81
88.0392	400
92.5136	124
99.887	79
100.0996	79
118.6174	107
130.7051	90
