Mass spectrum: Dihydromyricetin; LC-ESI-QTOF; MS2; CE: 50eV;  [M+H]+
Name: Dihydromyricetin
Class: Flavanonol
Formula: C15H12O8
Exact mass: 320.0532
SMILES: C1=C(C=C(C(=C1O)O)O)C2C(C(=O)C3=C(C=C(C=C3O2)O)O)O
InChI: InChI=1S/C15H12O8/c16-6-3-7(17)11-10(4-6)23-15(14(22)13(11)21)5-1-8(18)12(20)9(19)2-5/h1-4,14-20,22H
Instrument: TIMS-TOF Pro, Bruker Daltonik; Elute UHPLC System, Bruker Daltonik
Instrument type: LC-ESI-QTOF
Ms type: MS2
Ion mode: POSITIVE
Ionization: ESI
Collision energy: 50eV
Column name: Acquity CSHC18
Retention time: 4.679 min
Base peak: 321.0607
Precursor m/z: 321.0607
Precursor type: [M+H]+
Precursor intensity: 5492.38
m/z	relative intensity
111.8628	999
139.0349	302
149.0147	463
151.0318	643
184.0431	191
201.0148	375
229.0494	662
261.0418	505
275.0575	884
