Mass spectrum: Daidzein; LC-ESI-ITFT; MS2; CE: 30;  [M-H]-
Name: Daidzein
Class: Phenylpropanoids and polyketides; Isoflavonoids; Isoflav-2-enes
Formula: C15H10O4
Exact mass: 254.05791
SMILES: OC1=CC=C(C=C1)C1=COC2=C(C=CC(O)=C2)C1=O
InChI: InChI=1S/C15H10O4/c16-10-3-1-9(2-4-10)13-8-19-14-7-11(17)5-6-12(14)15(13)18/h1-8,16-17H
Instrument: Thermo Scientific Q-Exactive Focus
Instrument type: LC-ESI-ITFT
Ms type: MS2
Ion mode: NEGATIVE
Ionization: ESI
Collision energy: 30
Column name: Acquity CSHC18
Retention time: 0.931 min
Base peak: 253.05063
Precursor m/z: 253.05063
Precursor type: [M-H]-
m/z	relative intensity
91.0177	158
133.0283	183
135.0076	130
196.0521	90
208.0523	184
209.0601	151
223.0395	113
224.0473	253
225.0552	111
253.0504	999
