Mass spectrum: 4-GUANIDINOBUTANOATE; LC-ESI-QFT; MS2; CE: 30eV;  [M+H]+
Name: 4-GUANIDINOBUTANOATE
Class: NA
Formula: C5H11N3O2
Exact mass: 145.08513
SMILES: NC(N)=NCCCC(O)=O
InChI: InChI=1S/C5H11N3O2/c6-5(7)8-3-1-2-4(9)10/h1-3H2,(H,9,10)(H4,6,7,8)
Instrument: Q-Exactive Orbitrap, Thermo Scientfic; Ultimate 3000 HPLC, Thermo Scientfic
Instrument type: LC-ESI-QFT
Ms type: MS2
Ion mode: POSITIVE
Ionization: ESI
Collision energy: 30eV
Column name: Acquity CSHC18
Retention time: 0.632 min
Base peak: 146.0924
Precursor m/z: 146.0924
Precursor type: [M+H]+
Precursor intensity: 166
m/z	relative intensity
50.7112	4
60.0565	942
60.939	7
61.177	5
65.5867	6
66.5243	4
68.0503	6
69.0343	54
73.8817	4
73.888	5
76.9052	4
79.8514	5
83.0613	28
87.0642	73
88.0482	126
93.033	5
101.9649	8
103.1318	6
105.0747	46
111.056	414
112.0593	8
114.1564	5
118.9679	95
119.9759	84
123.0378	5
128.0824	999
129.0664	335
129.0856	39
133.0483	6
145.1785	169
146.1818	29
147.09	66
147.096	381
152.1375	5
