Mass spectrum: PHOSPHOCREATINE; LC-ESI-QFT; MS2; CE: 30eV;  [M+H]+
Name: PHOSPHOCREATINE
Class: NA
Formula: C4H10N3O5P
Exact mass: 211.03581
SMILES: CN(CC(O)=O)C(=N)NP(O)(O)=O
InChI: InChI=1S/C4H10N3O5P/c1-7(2-3(8)9)4(5)6-13(10,11)12/h2H2,1H3,(H,8,9)(H4,5,6,10,11,12)
Instrument: Q-Exactive Orbitrap, Thermo Scientfic; Ultimate 3000 HPLC, Thermo Scientfic
Instrument type: LC-ESI-QFT
Ms type: MS2
Ion mode: POSITIVE
Ionization: ESI
Collision energy: 30eV
Column name: Acquity CSHC18
Retention time: 0.555 min
Base peak: 212.0431
Precursor m/z: 212.0431
Precursor type: [M+H]+
Precursor intensity: 192
m/z	relative intensity
51.8838	4
55.7544	4
55.9919	6
60.3599	4
60.5969	5
66.4292	6
75.1761	6
76.3763	5
87.056	24
88.5176	7
90.0557	999
91.0589	14
94.2128	5
96.1911	5
97.2941	6
100.7565	5
103.82	5
110.3119	5
112.817	5
114.0668	661
115.0508	39
115.0702	27
122.996	181
123.98	107
127.2335	8
129.4991	5
132.0772	30
139.5723	6
149.801	5
159.806	6
166.0063	10
167.0222	30
168.0223	324
170.9144	8
182.0016	8
184.0171	121
188.9253	49
193.5438	6
193.9306	99
194.0331	77
195.0171	137
211.9412	141
212.0124	28
212.0437	571
213.0474	12
213.1469	6
213.1603	9
221.5399	6
