Mass spectrum: Beta MuriCholic Acid; LC-ESI-QTOF; MS2; CE: 30;  [M-2H2O+H]+
Name: Beta MuriCholic Acid
Class: Trihydroxy bile acids, alcohols and derivatives
Formula: C24H40O5
Exact mass: 408.28757
SMILES: [H][C@@]1(CC[C@@]2([H])[C@]3([H])C(O)C(O)[C@]4([H])C[C@H](O)CC[C@]4(C)[C@@]3([H])CC[C@]12C)[C@H](C)CCC(O)=O
InChI: InChI=1S/C24H40O5/c1-13(4-7-19(26)27)15-5-6-16-20-17(9-11-23(15,16)2)24(3)10-8-14(25)12-18(24)21(28)22(20)29/h13-18,20-22,25,28-29H,4-12H2,1-3H3,(H,26,27)/t13-,14-,15-,16+,17+,18+,20+,21?,22?,23-,24-/m1/s1
Instrument: impact II
Instrument type: LC-ESI-QTOF
Ms type: MS2
Ion mode: POSITIVE
Ionization: ESI
Collision energy: 30
Column name: Acquity CSHC18
Retention time: 1.983 min
Base peak: 373.27410
Precursor m/z: 373.27410
Precursor type: [M-2H2O+H]+
m/z	relative intensity
160.1233	291
175.13	400
355.765	578
372.264	999
