Mass spectrum: Quercetin-3-O-(2''-O-galloyl)-β-D-galactopyranoside; LC-ESI-ITFT; MS2; CE: 0.3;  [M-H]-
Name: Quercetin-3-O-(2''-O-galloyl)-β-D-galactopyranoside
Class: flavonol glycosides
Formula: C28H24O16
Exact mass: 616.1064
SMILES: O=C(O[C@@H]1[C@@H](O)[C@@H](O)[C@@H](CO)O[C@H]1OC1=C(c2cc(O)c(O)cc2)Oc2c(c(O)cc(O)c2)C1=O)c1cc(O)c(O)c(O)c1
InChI: InChI=1S/C28H24O16/c29-8-18-21(37)23(39)26(43-27(40)10-4-15(34)20(36)16(35)5-10)28(42-18)44-25-22(38)19-14(33)6-11(30)7-17(19)41-24(25)9-1-2-12(31)13(32)3-9/h1-7,18,21,23,26,28-37,39H,8H2/t18-,21+,23+,26-,28+/m1/s1
Instrument: LTQ-Orbitrap XL hybrid mass spectrometer (Thermo Scientific)
Instrument type: LC-ESI-ITFT
Ms type: MS2
Ion mode: NEGATIVE
Ionization: ESI
Collision energy: 0.3
Column name: Acquity CSHC18
Retention time: 5.274 min
Base peak: 615.0990
Precursor m/z: 615.0990
Precursor type: [M-H]-
Precursor intensity: 7128986
m/z	relative intensity
164.4198	3
167.0867	19
176.8626	3
179.0002	5
180.5898	3
187.1196	3
191.1753	3
194.9302	3
197.6677	5
200.4826	3
214.2853	3
287.1832	11
295.0829	4
297.2807	5
298.776	13
299.5242	4
299.8305	5
299.9514	3
300.9008	5
301.035	999
302.5539	7
303.3189	14
304.8625	5
305.6319	4
307.1936	4
309.7922	3
313.0561	190
318.6027	3
319.0863	3
324.2152	13
326.1002	4
326.9379	3
346.2159	3
384.167	4
463.0881	33
509.3499	3
