Mass spectrum: Diaminopimelic acid; ESI-TOF; MS2; CE: 0.6458333;  [M+H]+
Name: Diaminopimelic acid
Class: NA
Formula: C7H14N2O4
Exact mass: 190.09536
SMILES: NC(CCCC(N)C(O)=O)C(O)=O
InChI: InChI=1S/C7H14N2O4/c8-4(6(10)11)2-1-3-5(9)7(12)13/h4-5H,1-3,8-9H2,(H,10,11)(H,12,13)
Instrument: waters xevo g2 TOF
Instrument type: ESI-TOF
Ms type: MS2
Ion mode: POSITIVE
Ionization: ESI
Collision energy: 0.6458333
Column name: Acquity CSHC18
Retention time: 0.512 min
Base peak: 191.10336
Precursor m/z: 191.10336
Precursor type: [M+H]+
m/z	relative intensity
55.0554	20
68.0507	5
74.9541	7
82.0659	633
83.0701	36
91.0555	1
98.963	46
100.9437	4
110.9769	5
114.056	24
118.9464	1
128.0712	999
129.0879	74
145.0577	7
154.0192	14
156.0662	6
156.8682	1
160.9893	2
191.1031	68
