Mass spectrum: Hypotaurine; LC-ESI-ITFT; MS2; CE: 100;  [M-H]-
Name: Hypotaurine
Class: Organic acids and derivatives; Sulfinic acids and derivatives; Sulfinic acids
Formula: C2H7NO2S
Exact mass: 109.01975
SMILES: NCCS(O)=O
InChI: InChI=1S/C2H7NO2S/c3-1-2-6(4)5/h1-3H2,(H,4,5)
Instrument: Thermo Scientific Q-Exactive Focus
Instrument type: LC-ESI-ITFT
Ms type: MS2
Ion mode: NEGATIVE
Ionization: ESI
Collision energy: 100
Column name: Acquity CSHC18
Retention time: 2.318 min
Base peak: 108.01247
Precursor m/z: 108.01247
Precursor type: [M-H]-
m/z	relative intensity
63.9612	999
77.6506	376
82.0419	363
88.9413	418
89.7224	377
92.764	406
98.2155	388
101.5234	407
105.6954	367
108.2287	367
