Mass spectrum: 3,4-DIHYDROXYPHENYLACETATE; LC-ESI-QTOF; MS2; CE: 40;  [M-H]-
Name: 3,4-DIHYDROXYPHENYLACETATE
Class: NA
Formula: C8H8O4
Exact mass: 168.04226
SMILES: OC(=O)CC1=CC=C(O)C(O)=C1
InChI: InChI=1S/C8H8O4/c9-6-2-1-5(3-7(6)10)4-8(11)12/h1-3,9-10H,4H2,(H,11,12)
Instrument: Agilent 6530Â Q-TOF LC/MS
Instrument type: LC-ESI-QTOF
Ms type: MS2
Ion mode: NEGATIVE
Ionization: ESI
Collision energy: 40
Column name: NA
Retention time: 0.200 min
Base peak: 167.03528
Precursor m/z: 167.03528
Precursor type: [M-H]-
Precursor intensity: 102
m/z	relative intensity
41.0217	125
51.0266	142
53.0494	163
65.0197	180
67.0289	183
69.0187	186
71.0209	197
77.0392	218
93.0447	277
95.0495	336
106.0484	374
108.018	414
121.0353	470
122.0468	999
