Mass spectrum: myo-Inositol (M+Na); LC-ESI-QTOF; MS2; CE: 15.00;  [M+Na]+
Name: myo-Inositol (M+Na)
Class: NA
Formula: C6H12O6
Exact mass: 180.0634
SMILES: C1(C(C(C(C(C1O)O)O)O)O)O
InChI: InChI=1S/C6H12O6/c7-1-2(8)4(10)6(12)5(11)3(1)9/h1-12H
Instrument: Bruker MicrOTOF-Q
Instrument type: LC-ESI-QTOF
Ms type: MS2
Ion mode: POSITIVE
Ionization: ESI
Collision energy: 15.00
Column name: Acquity CSHC18
Retention time: NA
Base peak: 203.0526
Precursor m/z: 203.0526
Precursor type: [M+Na]+
m/z	relative intensity
116.0587	67
203.0517	999
456.3754	81
