Mass spectrum: 19(R)-hydroxy Prostaglandin E2; ESI-TOF; MS2; CE: 0.6458333;  [M+H]+
Name: 19(R)-hydroxy Prostaglandin E2
Class: NA
Formula: C20H32O6
Exact mass: 368.21989
SMILES: C[C@@H](O)CCC[C@H](O)\C=C\[C@H]1[C@H](O)CC(=O)[C@@H]1C\C=C/CCCC(O)=O
InChI: InChI=1S/C20H32O6/c1-14(21)7-6-8-15(22)11-12-17-16(18(23)13-19(17)24)9-4-2-3-5-10-20(25)26/h2,4,11-12,14-17,19,21-22,24H,3,5-10,13H2,1H3,(H,25,26)/b4-2-,12-11+/t14-,15+,16-,17-,19-/m1/s1
Instrument: waters xevo g2 TOF
Instrument type: ESI-TOF
Ms type: MS2
Ion mode: POSITIVE
Ionization: ESI
Collision energy: 0.6458333
Column name: Acquity CSHC18
Retention time: 2.564 min
Base peak: 369.22789
Precursor m/z: 369.22789
Precursor type: [M+H]+
m/z	relative intensity
81.0706	268
91.0546	509
93.0708	434
105.0716	880
107.0508	158
117.0708	472
119.0859	376
131.0871	766
145.1021	718
149.0949	184
159.1188	331
168.0902	68
169.1022	612
171.1172	653
175.1095	119
179.0841	98
181.1014	311
183.116	373
185.0961	386
186.095	34
189.0895	121
197.1308	233
199.1107	405
201.127	296
207.1066	91
211.1481	85
213.1287	452
223.1163	116
231.1367	161
235.1427	121
237.1616	114
239.141	152
255.1756	101
259.043	167
260.05	162
269.1887	101
277.0503	564
279.174	454
297.1855	999
298.1888	123
315.205	42
333.2048	156
357.1635	128
369.1141	282
