Mass spectrum: Deoxyadenosine; LC-ESI-ITFT; MS2; CE: 100;  [M+H]+
Name: Deoxyadenosine
Class: Nucleosides, nucleotides, and analogues; Purine nucleosides; Purine 2'-deoxyribonucleosides
Formula: C10H13N5O3
Exact mass: 251.10184
SMILES: NC1=NC=NC2=C1N=CN2[C@H]1C[C@H](O)[C@@H](CO)O1
InChI: InChI=1S/C10H13N5O3/c11-9-8-10(13-3-12-9)15(4-14-8)7-1-5(17)6(2-16)18-7/h3-7,16-17H,1-2H2,(H2,11,12,13)/t5-,6+,7+/m0/s1
Instrument: Thermo Scientific Q-Exactive Focus
Instrument type: LC-ESI-ITFT
Ms type: MS2
Ion mode: POSITIVE
Ionization: ESI
Collision energy: 100
Column name: Acquity CSHC18
Retention time: NA
Base peak: 252.10912
Precursor m/z: 252.10912
Precursor type: [M+H]+
m/z	relative intensity
53.0028	22
53.998	626
55.0296	318
65.0139	999
66.0217	56
67.0295	426
77.0138	171
79.0294	23
92.0246	507
119.0353	192
