Mass spectrum: PARAXANTHINE; LC-ESI-QTOF; MS2; CE: 20;  [M-H]-
Name: PARAXANTHINE
Class: NA
Formula: C7H8N4O2
Exact mass: 180.06473
SMILES: CN1C=NC2=C1C(=O)N(C)C(=O)N2
InChI: InChI=1S/C7H8N4O2/c1-10-3-8-5-4(10)6(12)11(2)7(13)9-5/h3H,1-2H3,(H,9,13)
Instrument: Agilent 6530Â Q-TOF LC/MS
Instrument type: LC-ESI-QTOF
Ms type: MS2
Ion mode: NEGATIVE
Ionization: ESI
Collision energy: 20
Column name: NA
Retention time: 0.200 min
Base peak: 179.05880
Precursor m/z: 179.05880
Precursor type: [M-H]-
Precursor intensity: 164
m/z	relative intensity
42.0072	174
59.0215	184
90.9779	191
107.0146	328
108.0285	353
122.0485	358
134.998	406
164.0393	693
179.0651	999
