Mass spectrum: Tectorigenin; LC-ESI-QTOF; MS2; CE: 50eV;  [M+H]+
Name: Tectorigenin
Class: Isoflavone
Formula: C16H12O6
Exact mass: 300.0634
SMILES: COC1=C(C2=C(C=C1O)OC=C(C2=O)C3=CC=C(C=C3)O)O
InChI: InChI=1S/C16H12O6/c1-21-16-11(18)6-12-13(15(16)20)14(19)10(7-22-12)8-2-4-9(17)5-3-8/h2-7,17-18,20H,1H3
Instrument: TIMS-TOF Pro, Bruker Daltonik; Elute UHPLC System, Bruker Daltonik
Instrument type: LC-ESI-QTOF
Ms type: MS2
Ion mode: POSITIVE
Ionization: ESI
Collision energy: 50eV
Column name: Acquity CSHC18
Retention time: 7.425 min
Base peak: 301.0685
Precursor m/z: 301.0685
Precursor type: [M+H]+
Precursor intensity: 783037.9
m/z	relative intensity
65.8723	1
68.9964	14
70.0043	8
84.0219	2
91.0538	1
94.0053	1
111.997	2
118.0387	7
119.0493	7
128.0615	7
136.0149	2
139.9848	5
140.0111	20
145.0513	1
147.0435	3
153.0172	2
156.0565	6
158.0207	1
167.9779	1
168.0046	38
169.0118	6
173.0497	1
184.0517	8
211.0412	3
229.0492	2
240.0411	4
241.05	2
258.0456	2
268.0292	1
283.0556	1
285.0371	30
286.0022	8
286.0424	9
286.5256	2
287.0469	38
288.0531	2
300.8373	1
300.9557	2
301.0685	999
301.5615	7
