Mass spectrum: 7-Methylsulfinylheptyl isothiocyanate; LC-ESI-QTOF; MS2; CE: 27.09;  [2M+K]+
Name: 7-Methylsulfinylheptyl isothiocyanate
Class: NA
Formula: C9H17NOS2
Exact mass: 219.0752
SMILES: CS(=O)CCCCCCCN=C=S
InChI: InChI=1S/C9H17NOS2/c1-13(11)8-6-4-2-3-5-7-10-9-12/h2-8H2,1H3
Instrument: Bruker MicrOTOF-Q
Instrument type: LC-ESI-QTOF
Ms type: MS2
Ion mode: POSITIVE
Ionization: ESI
Collision energy: 27.09
Column name: Acquity CSHC18
Retention time: NA
Base peak: 477.1135
Precursor m/z: 477.1135
Precursor type: [2M+K]+
m/z	relative intensity
118.03	17
118.54	17
130.54	8
133.03	17
140.02	17
141.03	17
156.08	17
178.06	35
178.73	17
179.29	26
180.288	376
181.07	177
181.57	35
182.06	26
182.57	17
183.07	44
185	8
187.05	17
188.58	8
189.08	150
190.115	35
191.045	17
191.59	53
192.08	35
192.58	8
193.11	17
198.07	17
198.62	17
203.07	8
208.77	17
209.56	514
210.07	168
210.56	115
211.07	53
211.57	106
212.14	17
212.86	17
217.55	8
218.56	26
219.105	13
220.08	26
221.08	35
227.04	8
239.06	88
239.55	26
240.526	19
242.645	999
244.2367	266
245.06	62
246.05	8
247.49	8
248.06	35
248.56	17
251.01	8
258.06	8
260.05	8
262.05	8
263.05	79
264.04	35
267.06	97
268.06	8
269.06	44
277.04	8
280.06	44
281.05	35
282.06	17
285.07	8
303.02	8
308.04	150
308.965	17
317	8
319	8
321.23	17
323.03	17
326.05	44
335	8
350.59	26
351.13	8
408.14	8
423.13	17
428.09	26
452.97	17
482.53	17
546.11	8
568.86	8
