Mass spectrum: QUINOLINATE; LC-ESI-QFT; MS2; CE: 30eV;  [M+H]+
Name: QUINOLINATE
Class: NA
Formula: C7H5NO4
Exact mass: 167.02186
SMILES: OC(=O)C1=CC=CN=C1C(O)=O
InChI: InChI=1S/C7H5NO4/c9-6(10)4-2-1-3-8-5(4)7(11)12/h1-3H,(H,9,10)(H,11,12)
Instrument: Q-Exactive Orbitrap, Thermo Scientfic; Ultimate 3000 HPLC, Thermo Scientfic
Instrument type: LC-ESI-QFT
Ms type: MS2
Ion mode: POSITIVE
Ionization: ESI
Collision energy: 30eV
Column name: Acquity CSHC18
Retention time: 0.794 min
Base peak: 168.0291
Precursor m/z: 168.0291
Precursor type: [M+H]+
Precursor intensity: 116
m/z	relative intensity
54.9305	1
66.4567	1
68.0502	4
69.2179	1
75.0107	1
75.1301	1
76.5038	1
78.0344	17
80.0501	12
96.045	164
99.2853	1
99.323	1
106.0291	2
107.0859	5
112.0399	6
122.024	5
124.0396	861
125.0429	20
140.0345	21
150.0188	999
151.0221	28
151.1118	2
167.1067	1
168.0294	45
169.0332	1
169.122	1
