Mass spectrum: GSH; LC-ESI-QTOF; MS2; CE: 60;  [M+H]+
Name: GSH
Class: NA
Formula: C10H17N3O6S
Exact mass: 307.08381
SMILES: C(CC(=O)NC(CS)C(=O)NCC(=O)O)C(C(=O)O)N
InChI: InChI=1S/C10H17N3O6S/c11-5(10(18)19)1-2-7(14)13-6(4-20)9(17)12-3-8(15)16/h5-6,20H,1-4,11H2,(H,12,17)(H,13,14)(H,15,16)(H,18,19)
Instrument: impact II
Instrument type: LC-ESI-QTOF
Ms type: MS2
Ion mode: POSITIVE
Ionization: ESI
Collision energy: 60
Column name: Acquity CSHC18
Retention time: 1.800 min
Base peak: 308.09120
Precursor m/z: 308.09120
Precursor type: [M+H]+
m/z	relative intensity
56.0502	367
58.9956	576
76.0222	670
84.045	999
