Mass spectrum: 5-Methoxytryptophan; ESI-TOF; MS2; CE: 6.0000000;  [M+H]+
Name: 5-Methoxytryptophan
Class: NA
Formula: C12H14N2O3
Exact mass: 234.10044
SMILES: COC1=CC2=C(NC=C2CC(N)C(O)=O)C=C1
InChI: InChI=1S/C12H14N2O3/c1-17-8-2-3-11-9(5-8)7(6-14-11)4-10(13)12(15)16/h2-3,5-6,10,14H,4,13H2,1H3,(H,15,16)
Instrument: waters xevo g2 TOF
Instrument type: ESI-TOF
Ms type: MS2
Ion mode: POSITIVE
Ionization: ESI
Collision energy: 6.0000000
Column name: Acquity CSHC18
Retention time: 1.839 min
Base peak: 235.10844
Precursor m/z: 235.10844
Precursor type: [M+H]+
m/z	relative intensity
113.9649	17
130.0703	2
137.9884	33
148.0763	41
159.0687	3
160.0764	174
161.0807	38
162.0921	201
163.095	21
164.0988	1
172.0762	45
173.0806	11
173.5812	1
174.0918	153
175.0947	21
176.1073	228
177.0746	51
181.0852	1
187.0867	4
188.0945	5
189.1028	321
190.0967	41
191.1085	2
193.5794	3
200.0712	102
201.0744	12
202.0763	2
203.0709	4
205.0965	3
218.5632	999
220.1517	80
221.0909	14
222.0765	1
225.0805	1
232.0962	6
233.0927	14
235.1082	798
236.1109	112
