Mass spectrum: QUINATE; LC-ESI-QTOF; MS2; CE: 10;  [M-H]-
Name: QUINATE
Class: NA
Formula: C7H12O6
Exact mass: 192.06339
SMILES: O[C@@H]1C[C@@](O)(C[C@@H](O)[C@H]1O)C(O)=O
InChI: InChI=1S/C7H12O6/c8-3-1-7(13,6(11)12)2-4(9)5(3)10/h3-5,8-10,13H,1-2H2,(H,11,12)/t3-,4-,5-,7+/m1/s1
Instrument: Agilent 6530Â Q-TOF LC/MS
Instrument type: LC-ESI-QTOF
Ms type: MS2
Ion mode: NEGATIVE
Ionization: ESI
Collision energy: 10
Column name: NA
Retention time: 0.200 min
Base peak: 191.05397
Precursor m/z: 191.05397
Precursor type: [M-H]-
Precursor intensity: 155
m/z	relative intensity
43.0287	106
45.0068	131
59.0252	136
85.0469	145
87.0147	176
93.0449	228
127.042	419
191.0817	999
