Mass spectrum: 3-Pyridylacetic acid; ESI-TOF; MS2; CE: 0.6458333;  [M+H]+
Name: 3-Pyridylacetic acid
Class: NA
Formula: C7H7NO2
Exact mass: 137.04768
SMILES: OC(=O)CC1=CN=CC=C1
InChI: InChI=1S/C7H7NO2/c9-7(10)4-6-2-1-3-8-5-6/h1-3,5H,4H2,(H,9,10)
Instrument: waters xevo g2 TOF
Instrument type: ESI-TOF
Ms type: MS2
Ion mode: POSITIVE
Ionization: ESI
Collision energy: 0.6458333
Column name: Acquity CSHC18
Retention time: 0.551 min
Base peak: 138.05568
Precursor m/z: 138.05568
Precursor type: [M+H]+
m/z	relative intensity
65.0394	5
66.0474	3
67.0427	4
82.0657	10
90.9044	4
92.0503	93
93.0583	999
94.0631	119
95.067	5
100.9832	4
110.0607	72
120.045	400
121.0485	36
122.0527	1
129.9452	1
131.9504	8
138.1733	208
139.0794	37
140.0127	4
145.0183	5
152.0714	118
182.0187	2
217.8607	3
230.8902	1
646.0778	1
