Mass spectrum: INOSINE-MONOPHOSPHATE; LC-ESI-QFT; MS2; CE: 30eV;  [M+H]+
Name: INOSINE-MONOPHOSPHATE
Class: NA
Formula: C10H13N4O8P
Exact mass: 348.04710
SMILES: O[C@@H]1[C@@H](COP(O)(O)=O)O[C@H]([C@@H]1O)N1C=NC2=C1N=CNC2=O
InChI: InChI=1S/C10H13N4O8P/c15-6-4(1-21-23(18,19)20)22-10(7(6)16)14-3-13-5-8(14)11-2-12-9(5)17/h2-4,6-7,10,15-16H,1H2,(H,11,12,17)(H2,18,19,20)/t4-,6-,7-,10-/m1/s1
Instrument: Q-Exactive Orbitrap, Thermo Scientfic; Ultimate 3000 HPLC, Thermo Scientfic
Instrument type: LC-ESI-QFT
Ms type: MS2
Ion mode: POSITIVE
Ionization: ESI
Collision energy: 30eV
Column name: Acquity CSHC18
Retention time: 0.675 min
Base peak: 349.0544
Precursor m/z: 349.0544
Precursor type: [M+H]+
Precursor intensity: 180
m/z	relative intensity
60.2982	1
66.3653	1
73.6413	1
75.6175	1
84.5195	1
84.8685	1
86.1865	1
87.1794	1
97.029	113
98.0324	1
105.07	1
121.1207	1
137.0462	999
138.0434	5
138.0494	29
166.1847	1
171.2549	1
171.5296	1
186.3354	1
189.0531	1
258.7194	1
311.9727	1
