Mass spectrum: Triethanolamine; LC-ESI-ITFT; MS2; CE: 30;  [M+H]+
Name: Triethanolamine
Class: Organonitrogen compounds; Amines; Alkanolamines
Formula: C6H15NO3
Exact mass: 149.10519
SMILES: OCCN(CCO)CCO
InChI: InChI=1S/C6H15NO3/c8-4-1-7(2-5-9)3-6-10/h8-10H,1-6H2
Instrument: Thermo Scientific Q-Exactive Focus
Instrument type: LC-ESI-ITFT
Ms type: MS2
Ion mode: POSITIVE
Ionization: ESI
Collision energy: 30
Column name: Acquity CSHC18
Retention time: 0.914 min
Base peak: 150.11247
Precursor m/z: 150.11247
Precursor type: [M+H]+
m/z	relative intensity
54.7649	10
56.05	25
68.05	58
69.8081	9
70.0656	999
88.076	148
96.9465	10
108.8261	11
130.9609	9
140.506	9
