Mass spectrum: 16-phenoxy tetranor Prostaglandin F2-alpha; ESI-TOF; MS2; CE: 0.6458333;  [M+H]+
Name: 16-phenoxy tetranor Prostaglandin F2-alpha
Class: NA
Formula: C22H30O6
Exact mass: 390.20424
SMILES: O[C@@H]1[C@H](C/C=C\CCCC(O)=O)[C@@H](/C=C/[C@@H](O)COC2=CC=CC=C2)[C@H](O)C1
InChI: InChI=1S/C22H30O6/c23-16(15-28-17-8-4-3-5-9-17)12-13-19-18(20(24)14-21(19)25)10-6-1-2-7-11-22(26)27/h1,3-6,8-9,12-13,16,18-21,23-25H,2,7,10-11,14-15H2,(H,26,27)/b6-1-,13-12+/t16-,18-,19-,20+,21-/m1/s1
Instrument: waters xevo g2 TOF
Instrument type: ESI-TOF
Ms type: MS2
Ion mode: POSITIVE
Ionization: ESI
Collision energy: 0.6458333
Column name: Acquity CSHC18
Retention time: 3.229 min
Base peak: 391.21224
Precursor m/z: 391.21224
Precursor type: [M+H]+
m/z	relative intensity
83.0498	83
88.0757	49
91.055	88
105.0727	47
117.0708	83
119.0861	40
131.0868	3
141.0718	62
143.0879	3
147.1182	3
158.1537	3
161.0981	3
163.9757	3
169.0992	39
171.1183	3
183.1184	3
189.1278	3
225.1265	3
233.1534	3
243.1385	3
244.1408	3
261.0602	41
261.1499	3
262.1521	3
274.2738	243
279.1598	3
280.1642	3
293.1683	3
337.1796	3
354.0899	60
355.095	3
355.19	3
372.1019	3
383.0913	54
397.2168	12
411.1763	20
413.1949	999
414.1978	214
415.1998	3
429.1606	392
430.1633	67
444.1298	3
445.1318	68
446.1331	3
447.1376	49
450.1351	3
803.3955	3
804.3957	3
819.3591	91
820.372	31
834.335	28
835.334	3
836.3302	3
837.3326	3
839.3331	3
