Mass spectrum: GDP; LC-ESI-QTOF; MS2; CE: 15 / 50;  [M+H]+
Name: GDP
Class: NA
Formula: C10H15N5O11P2
Exact mass: 443.02433
SMILES: C1=NC2=C(N1C3C(C(C(O3)COP(=O)(O)OP(=O)(O)O)O)O)N=C(NC2=O)N
InChI: InChI=1S/C10H15N5O11P2/c11-10-13-7-4(8(18)14-10)12-2-15(7)9-6(17)5(16)3(25-9)1-24-28(22,23)26-27(19,20)21/h2-3,5-6,9,16-17H,1H2,(H,22,23)(H2,19,20,21)(H3,11,13,14,18)
Instrument: impact II
Instrument type: LC-ESI-QTOF
Ms type: MS2
Ion mode: POSITIVE
Ionization: ESI
Collision energy: 15 / 50
Column name: Acquity CSHC18
Retention time: 1.003 min
Base peak: 444.03220
Precursor m/z: 444.03220
Precursor type: [M+H]+
m/z	relative intensity
119.0867	154
152.0564	999
443.3349	211
444.0317	292
444.3347	106
445.2421	109
446.2386	144
