Mass spectrum: 8β-ethoxy-9α-hydroxy-14-oxo-acanthospermolide; LC-ESI-ITFT; MS2; CE: 50eV;  [M+H]+
Name: 8β-ethoxy-9α-hydroxy-14-oxo-acanthospermolide
Class: Sesquiterpenelactone; Melampolide
Formula: C17H22O5
Exact mass: 306.1467
SMILES: C=C1[C@@H]2[C@H](OCC)[C@H](O)C(=CCCC(C)=C[C@H]2OC1=O)C=O
InChI: InChI=1S/C17H22O5/c1-4-21-16-14-11(3)17(20)22-13(14)8-10(2)6-5-7-12(9-18)15(16)19/h7-9,13-16,19H,3-6H2,1-2H3/t13-,14+,15-,16+/m1/s1
Instrument: Q Exactive Plus, ThermoFisher Scientific
Instrument type: LC-ESI-ITFT
Ms type: MS2
Ion mode: POSITIVE
Ionization: ESI
Collision energy: 50eV
Column name: Acquity CSHC18
Retention time: 5.562 min
Base peak: 307.1542
Precursor m/z: 307.1542
Precursor type: [M+H]+
Precursor intensity: 178848200
m/z	relative intensity
62.2027	38
64.9327	36
70.4836	47
93.148	43
97.4426	44
119.9084	36
125.8824	52
127.5928	39
135.0807	46
157.1003	58
159.0797	44
161.0968	72
169.101	319
173.0596	59
177.0909	274
179.1061	60
187.1127	226
193.1227	319
197.0959	643
215.1081	999
225.0898	370
233.1162	165
243.1011	819
243.1368	61
261.1125	467
261.1484	170
266.4387	44
271.0981	59
271.132	81
283.8778	64
289.1438	492
307.1202	72
307.1562	666
