Mass spectrum: Putative_Gerberinside; LC-ESI-QTOF; MS2; CE: 20-40eV;  [M+H]+
Name: Putative_Gerberinside
Class: O-glycoside coumpond
Formula: C16H18O8
Exact mass: 338.1002
SMILES: CC=1C=CC=C2C1C(=CC(=O)O2)OC3(C(C(C(C(CO)(O3)[H])(O)[H])(O)[H])(O)[H])[H]
InChI: InChI=1S/C16H18O8/c1-7-3-2-4-8-12(7)9(5-11(18)22-8)23-16-15(21)14(20)13(19)10(6-17)24-16/h2-5,10,13-17,19-21H,6H2,1H3
Instrument: Impact II, Bruker; Dionex 3000, Thermo Scientific
Instrument type: LC-ESI-QTOF
Ms type: MS2
Ion mode: POSITIVE
Ionization: ESI
Collision energy: 20-40eV
Column name: Acquity CSHC18
Retention time: 5.638 min
Base peak: 339.1082
Precursor m/z: 339.1082
Precursor type: [M+H]+
Precursor intensity: 47699.88
m/z	relative intensity
145.0387	43
177.0536	727
177.4658	999
