Mass spectrum: RIBOFLAVIN; LC-ESI-QFT; MS2; CE: 30eV;  [M+H]+
Name: RIBOFLAVIN
Class: NA
Formula: C17H20N4O6
Exact mass: 376.13828
SMILES: CC1=C(C)C=C2N(C[C@H](O)[C@H](O)[C@H](O)CO)C3=NC(=O)NC(=O)C3=NC2=C1
InChI: InChI=1S/C17H20N4O6/c1-7-3-9-10(4-8(7)2)21(5-11(23)14(25)12(24)6-22)15-13(18-9)16(26)20-17(27)19-15/h3-4,11-12,14,22-25H,5-6H2,1-2H3,(H,20,26,27)/t11-,12+,14-/m0/s1
Instrument: Q-Exactive Orbitrap, Thermo Scientfic; Ultimate 3000 HPLC, Thermo Scientfic
Instrument type: LC-ESI-QFT
Ms type: MS2
Ion mode: POSITIVE
Ionization: ESI
Collision energy: 30eV
Column name: Acquity CSHC18
Retention time: 6.546 min
Base peak: 377.1456
Precursor m/z: 377.1456
Precursor type: [M+H]+
Precursor intensity: 118
m/z	relative intensity
50.0237	118
53.3436	121
54.1439	148
60.1513	142
60.2325	138
61.9923	129
68.5404	152
72.2607	149
84.4154	178
88.1354	155
95.831	171
112.4307	163
115.5292	152
116.3765	153
237.6535	176
243.0883	999
294.0039	169
298.6898	151
347.0066	167
377.1462	964
