Mass spectrum: Carabrone; LC-ESI-ITFT; MS2; CE: 50eV;  [M+H]+
Name: Carabrone
Class: Sesquiterpenelactone; Xanthanolide
Formula: C15H22O3
Exact mass: 250.1569
SMILES: CC(O)CC[C@@H]1[C@@]2(C)C[C@H]3OC(=O)C(=C)[C@H]3C[C@@H]12
InChI: InChI=1S/C15H22O3/c1-8(16)4-5-11-12-6-10-9(2)14(17)18-13(10)7-15(11,12)3/h8,10-13,16H,2,4-7H2,1,3H3/t8?,10-,11+,12+,13-,15-/m1/s1
Instrument: Q Exactive Plus, ThermoFisher Scientific
Instrument type: LC-ESI-ITFT
Ms type: MS2
Ion mode: POSITIVE
Ionization: ESI
Collision energy: 50eV
Column name: Acquity CSHC18
Retention time: 6.964 min
Base peak: 251.1642
Precursor m/z: 251.1642
Precursor type: [M+H]+
Precursor intensity: 497048400
m/z	relative intensity
56.0735	12
59.7345	14
62.7517	13
69.4107	60
81.0706	16
85.0652	377
87.6224	15
89.9938	15
95.086	19
103.9826	12
105.0701	14
107.0854	25
119.086	111
131.0857	27
133.1015	73
139.0759	17
140.5228	13
145.1014	27
147.1161	92
149.1323	55
151.0753	13
157.1022	68
159.1159	999
161.1318	18
175.1112	104
177.0909	62
177.1266	259
187.1491	870
189.1638	95
191.1433	57
193.1212	144
205.1588	382
215.1437	120
233.1535	650
251.1643	179
