Mass spectrum: n-feruloyl-3-methoxytyramine; LC-ESI-QTOF; MS2; CE: 20-40eV;  [M+H]+
Name: n-feruloyl-3-methoxytyramine
Class: Hydroxycinnamic acids and derivatives
Formula: C19H21NO5
Exact mass: 343.1420
SMILES: COC=1C=C(C=CC1O)C(=C(C(=NCCC=2C=CC(=C(C2)OC)O)O)[H])[H]
InChI: InChI=1S/C19H21NO5/c1-24-17-11-13(3-6-15(17)21)5-8-19(23)20-10-9-14-4-7-16(22)18(12-14)25-2/h3-8,11-12,21-22H,9-10H2,1-2H3,(H,20,23)
Instrument: Impact II, Bruker; Dionex 3000, Thermo Scientific
Instrument type: LC-ESI-QTOF
Ms type: MS2
Ion mode: POSITIVE
Ionization: ESI
Collision energy: 20-40eV
Column name: Acquity CSHC18
Retention time: 7.632 min
Base peak: 344.1488
Precursor m/z: 344.1488
Precursor type: [M+H]+
Precursor intensity: 40330.38
m/z	relative intensity
95.0476	5
105.0327	3
106.0405	7
108.0553	3
117.033	177
118.0361	15
119.0488	51
120.0743	3
121.0667	3
129.0446	4
134.0351	27
135.0393	6
136.0515	6
145.0275	208
146.0307	14
149.059	86
151.0745	41
152.0762	5
162.0301	7
164.0682	4
177.0127	6
177.0545	999
177.1397	3
177.2149	3
178.0582	108
179.0591	7
245.6046	4
344.1497	10
