Mass spectrum: 2-METHYLMALEATE; LC-ESI-QTOF; MS2; CE: 20;  [M-H]-
Name: 2-METHYLMALEATE
Class: NA
Formula: C5H6O4
Exact mass: 130.02661
SMILES: C\C(=C\C(O)=O)C(O)=O
InChI: InChI=1S/C5H6O4/c1-3(5(8)9)2-4(6)7/h2H,1H3,(H,6,7)(H,8,9)/b3-2-
Instrument: Agilent 6530Â Q-TOF LC/MS
Instrument type: LC-ESI-QTOF
Ms type: MS2
Ion mode: NEGATIVE
Ionization: ESI
Collision energy: 20
Column name: NA
Retention time: 0.200 min
Base peak: 129.02031
Precursor m/z: 129.02031
Precursor type: [M-H]-
Precursor intensity: 192
m/z	relative intensity
41.055	824
85.0541	999
