Mass spectrum: 6?-hydroxy-5?-cholestanol; ESI-TOF; MS2; CE: 0.6458333;  [M+H]+
Name: 6?-hydroxy-5?-cholestanol
Class: NA
Formula: C27H48O2
Exact mass: 404.36543
SMILES: [H]OC1([H])(C([H])([H])C([H])([H])C3(C([H])([H])[H])(C([H])(C1([H])([H]))C([H])(O[H])C([H])([H])C2([H])(C4([H])(C([H])([H])C([H])([H])C([H])(C([H])(C([H])([H])[H])C([H])([H])C([H])([H])C([H])([H])C([H])(C([H])([H])[H])C([H])([H])[H])C4(C([H])([H])[H])(C([H])([H])C([H])([H])C23([H]))))))
InChI: InChI=1S/C27H48O2/c1-17(2)7-6-8-18(3)21-9-10-22-20-16-25(29)24-15-19(28)11-13-27(24,5)23(20)12-14-26(21,22)4/h17-25,28-29H,6-16H2,1-5H3
Instrument: waters xevo g2 TOF
Instrument type: ESI-TOF
Ms type: MS2
Ion mode: POSITIVE
Ionization: ESI
Collision energy: 0.6458333
Column name: Acquity CSHC18
Retention time: 9.627 min
Base peak: 405.37343
Precursor m/z: 405.37343
Precursor type: [M+H]+
m/z	relative intensity
81.071	110
93.0717	18
97.1019	24
107.0865	42
111.1183	23
119.0858	46
121.1016	50
123.1177	31
133.1019	22
135.1177	125
137.1335	18
145.1025	14
149.1332	58
161.1331	109
163.1501	29
175.1489	26
189.165	37
201.165	23
215.1796	36
229.1955	22
233.2277	23
257.2262	24
271.2528	4
287.2731	36
295.1953	999
369.3521	646
370.3549	188
371.3586	23
385.2468	14
387.3624	63
403.3563	6
