Mass spectrum: Prostaglandin F2-alpha 1,15-lactone; ESI-TOF; MS2; CE: 0.6458333;  [M+H]+
Name: Prostaglandin F2-alpha 1,15-lactone
Class: NA
Formula: C20H32O4
Exact mass: 336.23006
SMILES: O[C@@H]1[C@H](C/C=C\CCCC(O[C@@H](CCCCC)/C=C/2)=O)[C@@H]2[C@H](O)C1
InChI: InChI=1S/C20H32O4/c1-2-3-6-9-15-12-13-17-16(18(21)14-19(17)22)10-7-4-5-8-11-20(23)24-15/h4,7,12-13,15-19,21-22H,2-3,5-6,8-11,14H2,1H3/b7-4-,13-12+/t15-,16+,17+,18-,19+/m0/s1
Instrument: waters xevo g2 TOF
Instrument type: ESI-TOF
Ms type: MS2
Ion mode: POSITIVE
Ionization: ESI
Collision energy: 0.6458333
Column name: Acquity CSHC18
Retention time: 4.438 min
Base peak: 337.23806
Precursor m/z: 337.23806
Precursor type: [M+H]+
m/z	relative intensity
67.0539	34
69.0704	19
79.0545	81
81.0701	86
82.0722	7
85.1016	8
87.0449	45
91.0551	133
93.0703	115
95.0863	84
105.0713	166
107.0864	103
109.1026	34
115.0535	17
117.071	159
118.0782	14
119.0863	125
121.1016	97
122.1052	9
123.117	19
129.071	225
131.0864	264
132.0898	27
133.1018	83
135.118	49
137.133	11
141.0698	39
143.0861	165
144.09	21
145.1034	184
146.1046	15
147.1176	67
149.0604	18
155.0845	48
157.103	159
159.1176	68
161.1312	26
163.1114	16
165.1072	5
167.0373	29
169.102	89
170.1042	13
171.1174	144
173.1347	48
174.1399	6
175.1303	47
181.1019	67
182.0047	25
183.1175	63
185.0799	42
187.0601	39
188.1194	5
189.1268	18
199.113	80
201.1624	31
203.1068	25
209.133	51
211.1447	10
213.1276	33
217.1574	22
219.1364	10
221.1524	11
227.1602	14
229.1949	19
231.1382	12
235.1688	10
239.1779	50
240.1812	8
241.1964	77
255.2094	38
256.21	7
258.1896	7
259.133	6
263.201	13
265.2038	34
273.2211	17
275.2016	75
276.2033	12
283.2058	126
284.2078	22
285.2198	10
295.1359	19
301.2165	315
302.219	58
303.2293	26
313.1802	60
315.1948	56
316.1887	11
317.2086	9
318.1276	53
319.2278	47
320.2313	11
321.1392	19
329.1187	14
331.1585	999
332.1622	187
339.1643	135
