Mass spectrum: Sageone; LC-ESI-QFT; MS2; CE: 15,30,45 (NCE);  [2M+Na]+
Name: Sageone
Class: NA
Formula: C19H20O3
Exact mass: 296.1412
SMILES: CC1COC2=C1C(=O)C1=C(C2=O)C2=C(C=C1)C(C)(C)CCC2
InChI: InChI=1S/C19H20O3/c1-10-9-22-18-14(10)16(20)12-6-7-13-11(15(12)17(18)21)5-4-8-19(13,2)3/h6-7,10H,4-5,8-9H2,1-3H3
Instrument: QE Focus, Thermo Scientfic; UPLC I-Class, Waters
Instrument type: LC-ESI-QFT
Ms type: MS2
Ion mode: POSITIVE
Ionization: ESI
Collision energy: 15,30,45 (NCE)
Column name: Acquity CSHC18
Retention time: 4.368 min
Base peak: 615.2716
Precursor m/z: 615.2716
Precursor type: [2M+Na]+
Precursor intensity: 251776800
m/z	relative intensity
78.5434	986
296.502	999
