Mass spectrum: Malic acid; LC-ESI-ITFT; MS2; CE: 30;  [M-H]-
Name: Malic acid
Class: Organic acids and derivatives; Hydroxy acids and derivatives; Beta hydroxy acids and derivatives
Formula: C4H6O5
Exact mass: 134.02152
SMILES: OC(CC(O)=O)C(O)=O
InChI: InChI=1S/C4H6O5/c5-2(4(8)9)1-3(6)7/h2,5H,1H2,(H,6,7)(H,8,9)
Instrument: Thermo Scientific Q-Exactive Focus
Instrument type: LC-ESI-ITFT
Ms type: MS2
Ion mode: NEGATIVE
Ionization: ESI
Collision energy: 30
Column name: Acquity CSHC18
Retention time: 0.928 min
Base peak: 133.01425
Precursor m/z: 133.01425
Precursor type: [M-H]-
m/z	relative intensity
68.8016	52
71.0126	999
72.9919	563
89.9907	50
115.9264	49
116.5058	47
136.3113	48
143.1077	48
150.6354	52
152.3072	57
