Mass spectrum: D-Glutamine; ESI-TOF; MS2; CE: 6.0000000;  [M+H]+
Name: D-Glutamine
Class: NA
Formula: C5H10N2O3
Exact mass: 146.06914
SMILES: NC(CCC(N)=O)C(O)=O
InChI: InChI=1S/C5H10N2O3/c6-3(5(9)10)1-2-4(7)8/h3H,1-2,6H2,(H2,7,8)(H,9,10)
Instrument: waters xevo g2 TOF
Instrument type: ESI-TOF
Ms type: MS2
Ion mode: POSITIVE
Ionization: ESI
Collision energy: 6.0000000
Column name: Acquity CSHC18
Retention time: 0.526 min
Base peak: 147.07714
Precursor m/z: 147.07714
Precursor type: [M+H]+
m/z	relative intensity
84.0452	96
85.0482	2
99.9696	10
101.0083	3
102.0558	7
124.9563	1
130.0502	999
131.0533	69
132.0085	6
144.0653	1
147.0169	90
148.0794	12
