Mass spectrum: 5-HYDROXYTRYPTOPHAN; LC-ESI-QTOF; MS2; CE: 40;  [M+H]+
Name: 5-HYDROXYTRYPTOPHAN
Class: NA
Formula: C11H12N2O3
Exact mass: 220.08479
SMILES: N[C@@H](CC1=CNC2=C1C=C(O)C=C2)C(O)=O
InChI: InChI=1S/C11H12N2O3/c12-9(11(15)16)3-6-5-13-10-2-1-7(14)4-8(6)10/h1-2,4-5,9,13-14H,3,12H2,(H,15,16)/t9-/m0/s1
Instrument: Agilent 6530Â Q-TOF LC/MS
Instrument type: LC-ESI-QTOF
Ms type: MS2
Ion mode: POSITIVE
Ionization: ESI
Collision energy: 40
Column name: NA
Retention time: 0.200 min
Base peak: 221.09386
Precursor m/z: 221.09386
Precursor type: [M+H]+
Precursor intensity: 183.5
m/z	relative intensity
52.0257	124
53.0351	124
55.028	130
65.0412	137
77.0591	153
78.0408	154
79.0643	161
89.0511	168
90.0463	177
91.0607	178
102.0489	187
103.0733	187
104.0502	211
105.0581	213
106.0827	229
107.0678	230
115.0694	244
116.0706	260
117.073	365
118.0735	378
120.0465	413
128.0435	504
130.0847	573
131.0703	584
132.0563	621
133.0758	681
134.0793	687
140.0574	715
141.063	736
142.062	747
143.0611	809
146.0758	854
158.0742	946
159.0846	999
