Mass spectrum: Naringenin-7-O-glucoside; LC-ESI-QTOF; MS2; CE: 50eV;  [M+H]+
Name: Naringenin-7-O-glucoside
Class: Flavanone
Formula: C21H22O10
Exact mass: 434.1213
SMILES: C1C(OC2=CC(=CC(=C2C1=O)O)OC3C(C(C(C(O3)CO)O)O)O)C4=CC=C(C=C4)O
InChI: InChI=1S/C21H22O10/c22-8-16-18(26)19(27)20(28)21(31-16)29-11-5-12(24)17-13(25)7-14(30-15(17)6-11)9-1-3-10(23)4-2-9/h1-6,14,16,18-24,26-28H,7-8H2
Instrument: TIMS-TOF Pro, Bruker Daltonik; Elute UHPLC System, Bruker Daltonik
Instrument type: LC-ESI-QTOF
Ms type: MS2
Ion mode: POSITIVE
Ionization: ESI
Collision energy: 50eV
Column name: Acquity CSHC18
Retention time: 5.653 min
Base peak: 435.1260
Precursor m/z: 435.1260
Precursor type: [M+H]+
Precursor intensity: 47845.88
m/z	relative intensity
34.8615	1
41.7438	1
54.4337	1
85.002	1
107.0476	2
119.0494	3
123.0432	8
143.2666	1
147.0322	3
148.0478	2
153.0017	7
153.0174	187
154.02	4
155.0219	1
161.0571	1
171.0249	1
179.0068	1
268.6691	1
272.9354	1
272.9773	1
273.0376	10
273.0743	999
273.3418	1
273.5438	7
274.0794	58
275.0785	5
