Mass spectrum: 1-stearoyl-2-oleoyl-sn-glycero-3-phosphoethanolamine; ESI-TOF; MS2; CE: 0.6458333;  [M+H]+
Name: 1-stearoyl-2-oleoyl-sn-glycero-3-phosphoethanolamine
Class: NA
Formula: C41H80NO8P
Exact mass: 745.56216
SMILES: [H]C(=C([H])C([H])([H])C([H])([H])C([H])([H])C([H])([H])C([H])([H])C([H])([H])C([H])([H])C([H])([H])[H])C([H])([H])C([H])([H])C([H])([H])C([H])([H])C([H])([H])C([H])([H])C([H])([H])C(=O)OC([H])(C([H])([H])OC(=O)C([H])([H])C([H])([H])C([H])([H])C([H])([H])C([H])([H])C([H])([H])C([H])([H])C([H])([H])C([H])([H])C([H])([H])C([H])([H])C([H])([H])C([H])([H])C([H])([H])C([H])([H])C([H])([H])C([H])([H])[H])C([H])([H])OP(=O)([O-])OC([H])([H])C([H])([H])[N+]([H])([H])[H]
InChI: InChI=1S/C41H80NO8P/c1-3-5-7-9-11-13-15-17-19-21-23-25-27-29-31-33-40(43)47-37-39(38-49-51(45,46)48-36-35-42)50-41(44)34-32-30-28-26-24-22-20-18-16-14-12-10-8-6-4-2/h18,20,39H,3-17,19,21-38,42H2,1-2H3,(H,45,46)
Instrument: waters xevo g2 TOF
Instrument type: ESI-TOF
Ms type: MS2
Ion mode: POSITIVE
Ionization: ESI
Collision energy: 0.6458333
Column name: Acquity CSHC18
Retention time: 11.635 min
Base peak: 746.57016
Precursor m/z: 746.57016
Precursor type: [M+H]+
m/z	relative intensity
136.9315	3
164.0091	6
192.9577	4
265.253	7
267.2687	6
308.2936	4
459.2206	20
460.22	4
605.5509	999
606.5545	447
607.5559	108
608.5577	9
725.5088	8
741.4747	20
742.4777	9
746.5693	160
747.5733	75
748.5753	13
749.5799	3
765.5431	5
766.0446	9
766.5459	2
768.5519	28
769.5554	10
770.5611	5
784.5173	10
785.0176	5
785.021	2
785.516	6
785.5204	6
790.535	6
793.0077	2
925.5314	4
1138.3264	3
1138.8276	4
1139.3298	4
1139.8354	1
1157.2993	3
1157.799	4
1158.298	2
