Mass spectrum: Lyciumoside I; LC-ESI-QTOF; MS2; CE: 18eV;  [M+NH4]+
Name: Lyciumoside I
Class: Diterpene
Formula: C32H54O12
Exact mass: 630.3615
SMILES: O[C@@H]1[C@@H](O)[C@H](O)[C@@H](CO)O[C@H]1OCC(/C)=C\CCC(\C)=C\CCC(\C)=C\CC[C@](C)(O[C@@H]1O[C@H](CO)[C@@H](O)[C@H](O)[C@H]1O)C=C
InChI: InChI=1S/C32H54O12/c1-6-32(5,44-31-29(40)27(38)25(36)23(17-34)43-31)15-9-14-20(3)11-7-10-19(2)12-8-13-21(4)18-41-30-28(39)26(37)24(35)22(16-33)42-30/h6,10,13-14,22-31,33-40H,1,7-9,11-12,15-18H2,2-5H3/b19-10+,20-14+,21-13-/t22-,23-,24-,25-,26+,27+,28-,29-,30-,31+,32-/m1/s1
Instrument: Impact II qTOF
Instrument type: LC-ESI-QTOF
Ms type: MS2
Ion mode: POSITIVE
Ionization: ESI
Collision energy: 18eV
Column name: Acquity CSH C18 column (particle size 1.7 μm, column length 2.1 × 50 mm) (Waters)
Retention time: 20.8 min
Base peak: 648.3951
Precursor m/z: 648.3951
Precursor type: [M+NH4]+
m/z	relative intensity
109.1011	34
119.0859	19
121.1011	30
123.1179	17
135.118	19
145.0495	40
147.1172	18
149.1326	56
159.117	16
161.1328	48
163.0602	48
163.1489	63
175.149	30
177.164	46
189.1639	27
191.1803	16
201.1641	33
203.1777	23
215.1796	53
229.1952	15
231.2113	44
271.2422	999
272.2453	195
273.2541	26
289.2523	262
290.2566	53
325.1133	132
326.1187	18
343.1235	15
433.2956	39
451.3049	66
452.3097	23
648.3951	382
