Mass spectrum: Caffeoyl,feruloyl-spermidine; LC-ESI-QTOF; MS2; CE: 35eV;  [M+H]+
Name: Caffeoyl,feruloyl-spermidine
Class: Phenolic-polyamine conjugate
Formula: C26H33N3O6
Exact mass: 483.2369
SMILES: Oc1ccc(cc1OC)/C=C/C(=O)NCCCCNCCCNC(=O)/C=C/c1ccc(O)c(O)c1
InChI: InChI=1S/C26H33N3O6/c1-35-24-18-20(6-10-22(24)31)8-12-25(33)28-15-3-2-13-27-14-4-16-29-26(34)11-7-19-5-9-21(30)23(32)17-19/h5-12,17-18,27,30-32H,2-4,13-16H2,1H3,(H,28,33)(H,29,34)/b11-7+,12-8+
Instrument: Impact II qTOF
Instrument type: LC-ESI-QTOF
Ms type: MS2
Ion mode: POSITIVE
Ionization: ESI
Collision energy: 35eV
Column name: Acquity CSH C18 column (particle size 1.7 μm, column length 2.1 × 50 mm) (Waters)
Retention time: 8.41 min
Base peak: 484.2448
Precursor m/z: 484.2448
Precursor type: [M+H]+
m/z	relative intensity
163.0389	212
177.0548	920
178.0585	78
220.0969	999
221.1011	84
248.1281	84
291.1707	123
308.1976	252
322.2124	311
323.2173	49
484.2448	120
