Mass spectrum: L-DOPA; LC-ESI-QFT; MS2; CE: 30eV;  [M+H]+
Name: L-DOPA
Class: NA
Formula: C9H11NO4
Exact mass: 197.06881
SMILES: N[C@@H](CC1=CC(O)=C(O)C=C1)C(O)=O
InChI: InChI=1S/C9H11NO4/c10-6(9(13)14)3-5-1-2-7(11)8(12)4-5/h1-2,4,6,11-12H,3,10H2,(H,13,14)/t6-/m0/s1
Instrument: Q-Exactive Orbitrap, Thermo Scientfic; Ultimate 3000 HPLC, Thermo Scientfic
Instrument type: LC-ESI-QFT
Ms type: MS2
Ion mode: POSITIVE
Ionization: ESI
Collision energy: 30eV
Column name: Acquity CSHC18
Retention time: 0.747 min
Base peak: 198.0761
Precursor m/z: 198.0761
Precursor type: [M+H]+
Precursor intensity: 152
m/z	relative intensity
57.6767	3
61.7731	3
65.0393	6
65.5818	2
66.177	3
73.774	3
75.5893	3
79.0549	5
80.379	3
87.5538	3
91.0548	7
92.4588	3
93.0342	7
102.7657	3
106.0658	6
107.0497	63
111.0445	45
119.0497	8
123.0444	3
134.0604	20
135.0444	503
136.0478	16
137.0601	30
139.0393	999
140.0425	33
145.0028	4
145.8098	3
153.055	4
153.0681	5
153.0742	83
163.0393	221
164.0424	4
181.0499	993
182.0534	28
198.0766	159
