Mass spectrum: SYRINGIC ACID; LC-ESI-QTOF; MS2; CE: -10, -35, -60V;  [M-H]-
Name: SYRINGIC ACID
Class: NA
Formula: C9H10O5
Exact mass: 198.0528
SMILES: COC1=CC(=CC(=C1O)OC)C(=O)O
InChI: InChI=1S/C9H10O5/c1-13-6-3-5(9(11)12)4-7(14-2)8(6)10/h3-4,10H,1-2H3,(H,11,12)
Instrument: TripleToF 5600; Sciex
Instrument type: LC-ESI-QTOF
Ms type: MS2
Ion mode: NEGATIVE
Ionization: ESI
Collision energy: -10, -35, -60V
Column name: Acquity CSHC18
Retention time: 7.577 min
Base peak: 197.0419
Precursor m/z: 197.0419
Precursor type: [M-H]-
Precursor intensity: 104379
m/z	relative intensity
78.0173	12
95.0131	108
121.0278	33
123.0065	181
137.0241	20
138.0306	66
153.058	77
155.0378	27
166.9976	279
168.0042	23
182.0242	663
183.0235	62
184.0237	16
197.0456	999
