Mass spectrum: 7-Hydroxy-5-methoxychromen-2-one; LC-ESI-ITFT; MS2; CE: 45eV;  [M-H]-
Name: 7-Hydroxy-5-methoxychromen-2-one
Class: coumarin
Formula: C10H8O4
Exact mass: 192.0423
SMILES: COC1=C2C=CC(=O)OC2=CC(=C1)O
InChI: InChI=1S/C10H8O4/c1-13-8-4-6(11)5-9-7(8)2-3-10(12)14-9/h2-5,11H,1H3
Instrument: LTQ Orbitrap XL, Thermo Scientfic; Dionex Ultimate 300
Instrument type: LC-ESI-ITFT
Ms type: MS2
Ion mode: NEGATIVE
Ionization: ESI
Collision energy: 45eV
Column name: Alltima C18
Retention time: 19.78 min
Base peak: 191.0342
Precursor m/z: 191.0342
Precursor type: [M-H]-
m/z	relative intensity
134.8324	999
172.9026	499
