Mass spectrum: caffeic acid; LC-ESI-QFT; MS2; CE: NCE_15_30_41;  [M-H]-
Name: caffeic acid
Class: NA
Formula: C9H8O4
Exact mass: 180.0423
SMILES: C1=CC(=C(C=C1C=CC(=O)O)O)O
InChI: InChI=1S/C9H8O4/c10-7-3-1-6(5-8(7)11)2-4-9(12)13/h1-5,10-11H,(H,12,13)
Instrument: Thermo_Qexactive_Plus
Instrument type: LC-ESI-QFT
Ms type: MS2
Ion mode: NEGATIVE
Ionization: ESI
Collision energy: NCE_15_30_41
Column name: Acquity CSHC18
Retention time: 3.228 min
Base peak: 179.0342
Precursor m/z: 179.0342
Precursor type: [M-H]-
Precursor intensity: 955890600
m/z	relative intensity
59.8313	2
70.7363	3
77.9451	3
82.2513	3
84.3856	3
91.0545	3
92.0813	3
107.0484	3
117.0334	3
117.3427	7
134.0361	8
135.0435	12
136.0473	69
163.3153	365
179.0341	999
