Mass spectrum: boldine; LC-ESI-ITFT; MS2; CE: 0.3;  [M+H]+
Name: boldine
Class: alkaloids
Formula: C19H21NO4
Exact mass: 327.1471
SMILES: CN1CCC2=CC(=C(C3=C2C1CC4=CC(=C(C=C43)OC)O)OC)O
InChI: InChI=1S/C19H21NO4/c1-20-5-4-10-7-15(22)19(24-3)18-12-9-16(23-2)14(21)8-11(12)6-13(20)17(10)18/h7-9,13,21-22H,4-6H2,1-3H3
Instrument: LTQ-Orbitrap XL hybrid mass spectrometer (Thermo Scientific)
Instrument type: LC-ESI-ITFT
Ms type: MS2
Ion mode: POSITIVE
Ionization: ESI
Collision energy: 0.3
Column name: Acquity CSHC18
Retention time: 3.994 min
Base peak: 328.1542
Precursor m/z: 328.1542
Precursor type: [M+H]+
Precursor intensity: 27530180
m/z	relative intensity
89.1625	1
97.8157	1
106.4608	1
135.1374	1
160.1713	1
165.0648	2
166.9537	9
170.3326	2
178.6036	1
197.4827	2
210.8234	1
232.9827	1
253.0863	25
263.2172	3
265.086	529
266.0817	2
285.1122	13
287.1988	5
294.8956	4
296.8787	1
296.8897	2
296.9225	2
296.9379	2
296.9521	3
296.9689	3
296.9853	3
296.9994	4
297.0144	5
297.0299	5
297.0464	4
297.059	4
297.1124	999
297.1725	4
297.1836	6
297.2011	4
297.2147	5
297.2314	3
297.2492	3
297.2606	4
297.2917	2
297.3102	2
297.3244	2
297.3379	2
298.1471	2
299.3547	4
324.1284	6
328.1476	3
