Mass spectrum: 1-oleoyl-N-heptadecanoyl-D-erythro-sphingosine; ESI-TOF; MS2; CE: 6.0000000;  [M+H]+
Name: 1-oleoyl-N-heptadecanoyl-D-erythro-sphingosine
Class: NA
Formula: C53H101NO4
Exact mass: 815.77306
SMILES: [H]OC([H])(C([H])=C([H])C([H])([H])C([H])([H])C([H])([H])C([H])([H])C([H])([H])C([H])([H])C([H])([H])C([H])([H])C([H])([H])C([H])([H])C([H])([H])C([H])([H])C([H])([H])[H])C([H])(N([H])C(=O)C([H])([H])C([H])([H])C([H])([H])C([H])([H])C([H])([H])C([H])([H])C([H])([H])C([H])([H])C([H])([H])C([H])([H])C([H])([H])C([H])([H])C([H])([H])C([H])([H])C([H])([H])C([H])([H])[H])C([H])([H])OC(=O)C([H])([H])C([H])([H])C([H])([H])C([H])([H])C([H])([H])C([H])([H])C([H])([H])C([H])=C([H])C([H])([H])C([H])([H])C([H])([H])C([H])([H])C([H])([H])C([H])([H])C([H])([H])C([H])([H])[H]
InChI: InChI=1S/C53H101NO4/c1-4-7-10-13-16-19-22-25-27-30-33-36-39-42-45-48-53(57)58-49-50(51(55)46-43-40-37-34-31-28-24-21-18-15-12-9-6-3)54-52(56)47-44-41-38-35-32-29-26-23-20-17-14-11-8-5-2/h25,27,43,46,50-51,55H,4-24,26,28-42,44-45,47-49H2,1-3H3,(H,54,56)
Instrument: waters xevo g2 TOF
Instrument type: ESI-TOF
Ms type: MS2
Ion mode: POSITIVE
Ionization: ESI
Collision energy: 6.0000000
Column name: Acquity CSHC18
Retention time: 13.721 min
Base peak: 816.78106
Precursor m/z: 816.78106
Precursor type: [M+H]+
m/z	relative intensity
127.9794	57
129.9793	20
129.9794	24
129.9797	27
145.9546	28
145.9549	44
145.9566	27
214.9182	1
230.8908	75
230.8913	36
295.1927	32
295.1943	52
295.1945	21
295.1954	36
427.8687	339
428.3696	183
428.8725	61
798.7715	635
799.7764	369
800.7779	68
816.7818	994
817.7835	575
818.7871	171
819.7936	32
835.7575	163
836.2574	184
836.7595	129
837.2602	40
838.7618	999
839.7665	604
840.7689	111
841.7702	40
844.244	31
844.7439	33
854.737	46
854.7419	61
855.7433	30
900.7335	91
901.7357	58
