Mass spectrum: protoporphyrin IX; LC-ESI-QTOF; MS2; CE: -10, -35, -60V;  [M-H]-
Name: protoporphyrin IX
Class: NA
Formula: C34H34N4O4
Exact mass: 562.2580
SMILES: CC1=C(C2=CC3=NC(=CC4=NC(=CC5=C(C(=C(N5)C=C1N2)C=C)C)C(=C4CCC(=O)O)C)C(=C3C)CCC(=O)O)C=C
InChI: InChI=1S/C34H34N4O4/c1-7-21-17(3)25-13-26-19(5)23(9-11-33(39)40)31(37-26)16-32-24(10-12-34(41)42)20(6)28(38-32)15-30-22(8-2)18(4)27(36-30)14-29(21)35-25/h7-8,13-16,35-36H,1-2,9-12H2,3-6H3,(H,39,40)(H,41,42)
Instrument: TripleToF 5600; Sciex
Instrument type: LC-ESI-QTOF
Ms type: MS2
Ion mode: NEGATIVE
Ionization: ESI
Collision energy: -10, -35, -60V
Column name: Acquity CSHC18
Retention time: 20.036 min
Base peak: 561.2478
Precursor m/z: 561.2478
Precursor type: [M-H]-
Precursor intensity: 283761.1
m/z	relative intensity
223.1281	3
237.14	3
338.1786	2
352.1854	2
354.1963	7
428.2042	7
429.2214	7
430.2134	46
431.2006	10
431.2212	13
442.2125	18
443.2253	61
444.2214	37
445.2365	27
446.2498	6
456.1808	3
457.2306	29
457.2487	30
458.2453	322
459.2521	117
460.2388	16
461.263	1
469.1944	3
470.2009	26
471.2177	15
472.2111	5
472.254	11
473.2699	622
474.2777	270
475.2774	53
481.2416	7
484.2314	37
485.2166	9
499.2342	46
499.25	51
500.2472	25
501.258	4
517.2617	22
518.2574	7
544.2354	7
559.4792	8
560.4713	2
561.2101	138
561.2535	999
