Mass spectrum: Atenolol; ESI-TOF; MS2; CE: 6.0000000;  [M+H]+
Name: Atenolol
Class: NA
Formula: C14H22N2O3
Exact mass: 266.16304
SMILES: CC(C)NCC(O)COC1=CC=C(CC(N)=O)C=C1
InChI: InChI=1S/C14H22N2O3/c1-10(2)16-8-12(17)9-19-13-5-3-11(4-6-13)7-14(15)18/h3-6,10,12,16-17H,7-9H2,1-2H3,(H2,15,18)
Instrument: waters xevo g2 TOF
Instrument type: ESI-TOF
Ms type: MS2
Ion mode: POSITIVE
Ionization: ESI
Collision energy: 6.0000000
Column name: Acquity CSHC18
Retention time: 0.590 min
Base peak: 267.17104
Precursor m/z: 267.17104
Precursor type: [M+H]+
m/z	relative intensity
116.1072	1
190.0866	5
225.1238	17
226.1274	2
249.1607	3
258.1712	1
267.1709	999
268.1742	171
269.1767	23
270.1783	1
289.1541	2
