Mass spectrum: DIHYDROBIOPTERIN; LC-ESI-QTOF; MS2; CE: 10;  [M+H]+
Name: DIHYDROBIOPTERIN
Class: NA
Formula: C9H13N5O3
Exact mass: 239.10184
SMILES: C[C@H](O)[C@H](O)C1=NC2=C(NC1)NC(N)=NC2=O
InChI: InChI=1S/C9H13N5O3/c1-3(15)6(16)4-2-11-7-5(12-4)8(17)14-9(10)13-7/h3,6,15-16H,2H2,1H3,(H4,10,11,13,14,17)/t3-,6-/m0/s1
Instrument: Agilent 6530Â Q-TOF LC/MS
Instrument type: LC-ESI-QTOF
Ms type: MS2
Ion mode: POSITIVE
Ionization: ESI
Collision energy: 10
Column name: NA
Retention time: 0.200 min
Base peak: 240.11146
Precursor m/z: 240.11146
Precursor type: [M+H]+
Precursor intensity: 28.5
m/z	relative intensity
41.0226	25
43.0193	26
44.0516	27
45.0442	27
55.0309	27
56.041	27
60.0554	28
79.0375	28
81.0423	29
83.059	29
86.0443	29
88.0332	30
94.0336	30
96.059	30
97.0473	30
98.0634	31
108.0529	31
109.0561	32
113.048	33
121.0515	33
123.0618	36
125.047	36
126.0681	36
127.074	36
134.0309	36
137.0635	38
138.0819	38
140.0588	39
147.0451	39
149.0534	40
151.0718	40
152.0525	41
154.084	42
161.0473	43
163.0646	45
164.0651	46
165.1018	53
166.1011	57
168.1311	58
169.0762	59
178.0873	63
179.1021	63
180.1044	66
187.0461	71
193.0903	91
194.0951	96
195.0904	120
196.1324	155
196.4394	178
196.6255	270
196.7509	340
196.8635	383
197.0807	422
204.0852	650
222.1316	688
239.078	972
240.1603	999
