Mass spectrum: Pyruvic acid; LC-ESI-ITFT; MS2; CE: 100;  [M-H]-
Name: Pyruvic acid
Class: Organic acids and derivatives; Keto acids and derivatives; Alpha-keto acids and derivatives
Formula: C3H4O3
Exact mass: 88.01604
SMILES: CC(=O)C(O)=O
InChI: InChI=1S/C3H4O3/c1-2(4)3(5)6/h1H3,(H,5,6)
Instrument: Thermo Scientific Q-Exactive Focus
Instrument type: LC-ESI-ITFT
Ms type: MS2
Ion mode: NEGATIVE
Ionization: ESI
Collision energy: 100
Column name: Acquity CSHC18
Retention time: 2.583 min
Base peak: 87.00877
Precursor m/z: 87.00877
Precursor type: [M-H]-
m/z	relative intensity
56.6925	746
60.9661	803
61.8018	685
63.879	777
67.4065	733
72.1228	768
77.373	768
77.9382	776
96.2121	734
100.9556	999
