Mass spectrum: PIPECOLATE; LC-ESI-QFT; MS2; CE: 30eV;  [M+H]+
Name: PIPECOLATE
Class: NA
Formula: C6H11NO2
Exact mass: 129.07898
SMILES: OC(=O)[C@@H]1CCCCN1
InChI: InChI=1S/C6H11NO2/c8-6(9)5-3-1-2-4-7-5/h5,7H,1-4H2,(H,8,9)/t5-/m0/s1
Instrument: Q-Exactive Orbitrap, Thermo Scientfic; Ultimate 3000 HPLC, Thermo Scientfic
Instrument type: LC-ESI-QFT
Ms type: MS2
Ion mode: POSITIVE
Ionization: ESI
Collision energy: 30eV
Column name: Acquity CSHC18
Retention time: 0.680 min
Base peak: 130.0863
Precursor m/z: 130.0863
Precursor type: [M+H]+
Precursor intensity: 126
m/z	relative intensity
52.1576	30
52.1594	29
54.0821	28
55.055	41
56.0502	452
58.2421	28
60.0564	61
60.2541	30
66.9145	27
67.0551	36
71.4712	31
72.0815	207
73.3885	33
73.909	31
74.5589	30
79.2565	35
85.0784	50
85.0848	991
88.04	63
88.0764	527
89.9406	76
90.8849	31
112.0761	59
130.123	999
130.9668	39
131.0899	697
135.282	35
144.8408	36
148.9777	48
