Mass spectrum: Myricetin; LC-ESI-QTOF; MS2; CE: 35;  [M-H]-
Name: Myricetin
Class: NA
Formula: C15H10O8
Exact mass: 318.0376
SMILES: C1=C(C=C(C(=C1O)O)O)C2=C(C(=O)C3=C(C=C(C=C3O2)O)O)O
InChI: InChI=1S/C15H10O8/c16-6-3-7(17)11-10(4-6)23-15(14(22)13(11)21)5-1-8(18)12(20)9(19)2-5/h1-4,16-20,22H
Instrument: Bruker MicrOTOF-Q
Instrument type: LC-ESI-QTOF
Ms type: MS2
Ion mode: NEGATIVE
Ionization: ESI
Collision energy: 35
Column name: Acquity CSHC18
Retention time: NA
Base peak: 317.0297
Precursor m/z: 317.0297
Precursor type: [M-H]-
m/z	relative intensity
109.0297	999
137.0232	473
151.0046	529
155.0457	124
164.0073	132
178.9968	122
191.0337	120
243.0282	158
271.0248	232
