Mass spectrum: (2aS,4S,6aS,6bS,8aS,8bR,9S,12R,14aR,15aS,15bR)-6a,8a,9,12-tetramethyl-1,2,2a,3,4,5,6,6a,6b,7,8,8a,8b,9,10,11,12,13,14a,15,15a,15b-docosahydronaphtho[2'',1'':4',5']indeno[1',2':5,6]pyrano[3,2-b]pyridin-4-ol; APCI-ITFT; MS2; CE: 35 CID;  [M+H]+
Name: (2aS,4S,6aS,6bS,8aS,8bR,9S,12R,14aR,15aS,15bR)-6a,8a,9,12-tetramethyl-1,2,2a,3,4,5,6,6a,6b,7,8,8a,8b,9,10,11,12,13,14a,15,15a,15b-docosahydronaphtho[2'',1'':4',5']indeno[1',2':5,6]pyrano[3,2-b]pyridin-4-ol
Class: NA
Formula: C27H43NO2
Exact mass: 413.32938
SMILES: O[C@H]1CC[C@@]2(C)[C@](CC[C@]3([H])[C@]2([H])CC[C@@]4(C)[C@@]3([H])C[C@@]([H])(OC(C[C@@H](C)CN5)=C5[C@H]6C)[C@@]46[H])([H])C1
InChI: InChI=1S/C27H43NO2/c1-15-11-23-25(28-14-15)16(2)24-22(30-23)13-21-19-6-5-17-12-18(29)7-9-26(17,3)20(19)8-10-27(21,24)4/h15-22,24,28-29H,5-14H2,1-4H3/t15-,16+,17+,18+,19-,20+,21+,22-,24+,26+,27+/m1/s1
Instrument: Orbitrap Elite
Instrument type: APCI-ITFT
Ms type: MS2
Ion mode: POSITIVE
Ionization: APCI
Collision energy: 35 CID
Column name: Acquity CSHC18
Retention time: 1.028 min
Base peak: 414.33570
Precursor m/z: 414.33570
Precursor type: [M+H]+
Precursor intensity: 208801.1
m/z	relative intensity
139.0984	68
145.101	54
147.5398	31
159.1183	53
161.1316	159
164.9605	37
168.0907	30
173.1317	60
178.1241	36
207.2745	29
212.7379	28
213.1632	30
215.1792	49
241.1958	37
254.5866	38
255.2118	392
256.217	61
271.202	72
273.2205	350
274.2259	66
282.4913	35
290.0557	35
317.2497	97
337.2549	29
349.2915	69
355.2602	999
356.2642	188
367.3026	60
372.2862	332
373.1458	34
373.2938	82
382.8505	39
385.31	67
390.4325	31
396.3278	259
397.3323	81
401.4421	29
413.3267	58
414.342	38
