Mass spectrum: L-CARNITINE; LC-ESI-QFT; MS2; CE: 30eV;  [M+H]+
Name: L-CARNITINE
Class: NA
Formula: C7H15NO3
Exact mass: 161.10519
SMILES: C[N+](C)(C)C[C@H](O)CC([O-])=O
InChI: InChI=1S/C7H15NO3/c1-8(2,3)5-6(9)4-7(10)11/h6,9H,4-5H2,1-3H3/t6-/m1/s1
Instrument: Q-Exactive Orbitrap, Thermo Scientfic; Ultimate 3000 HPLC, Thermo Scientfic
Instrument type: LC-ESI-QFT
Ms type: MS2
Ion mode: POSITIVE
Ionization: ESI
Collision energy: 30eV
Column name: Acquity CSHC18
Retention time: 0.607 min
Base peak: 162.1125
Precursor m/z: 162.1125
Precursor type: [M+H]+
Precursor intensity: 157
m/z	relative intensity
51.8493	24
55.6619	25
57.0343	43
57.3339	28
58.0658	55
59.0736	32
61.0849	155
70.6558	27
75.9077	27
77.9092	27
85.0291	679
86.0324	34
90.5462	31
102.092	999
103.0951	43
104.0429	123
106.3274	40
106.4944	29
110.8946	30
112.3193	32
112.3242	28
117.9803	130
125.1268	30
145.8455	29
163.1101	97
174.9435	30
183.2056	40
