Mass spectrum: N-Oleoylethanolamine; LC-ESI-ITFT; MS2; CE: 100;  [M+H]+
Name: N-Oleoylethanolamine
Class: Organic nitrogen compounds; Organonitrogen compounds; Amines
Formula: C20H39NO2
Exact mass: 325.29808
SMILES: CCCCCCCC\C=C/CCCCCCCC(=O)NCCO
InChI: InChI=1S/C20H39NO2/c1-2-3-4-5-6-7-8-9-10-11-12-13-14-15-16-17-20(23)21-18-19-22/h9-10,22H,2-8,11-19H2,1H3,(H,21,23)/b10-9-
Instrument: Thermo Scientific Q-Exactive Focus
Instrument type: LC-ESI-ITFT
Ms type: MS2
Ion mode: POSITIVE
Ionization: ESI
Collision energy: 100
Column name: Acquity CSHC18
Retention time: 2.305 min
Base peak: 326.30536
Precursor m/z: 326.30536
Precursor type: [M+H]+
m/z	relative intensity
53.0027	291
53.0391	344
55.0184	125
55.0548	999
65.039	167
67.0547	279
79.0546	157
91.0545	81
92.5222	141
95.0494	207
