Mass spectrum: CORTISOL 21-ACETATE; LC-ESI-QFT; MS2; CE: 30eV;  [M+H]+
Name: CORTISOL 21-ACETATE
Class: NA
Formula: C23H32O6
Exact mass: 404.21989
SMILES: CC(=O)OCC(=O)C1(CCC2C1(CC(C3C2CCC4=CC(=O)CCC34C)O)C)O
InChI: InChI=1S/C23H32O6/c1-13(24)29-12-19(27)23(28)9-7-17-16-5-4-14-10-15(25)6-8-21(14,2)20(16)18(26)11-22(17,23)3/h10,16-18,20,26,28H,4-9,11-12H2,1-3H3
Instrument: Q-Exactive Orbitrap, Thermo Scientfic; Ultimate 3000 HPLC, Thermo Scientfic
Instrument type: LC-ESI-QFT
Ms type: MS2
Ion mode: POSITIVE
Ionization: ESI
Collision energy: 30eV
Column name: Acquity CSHC18
Retention time: 9.425 min
Base peak: 405.2272
Precursor m/z: 405.2272
Precursor type: [M+H]+
Precursor intensity: 150
m/z	relative intensity
101.0419	64
107.0678	66
121.0834	75
137.0778	86
147.0989	119
149.1146	148
159.0988	185
171.0988	189
173.1145	215
185.1144	216
197.1145	238
199.1303	242
211.1301	261
223.1302	281
225.1462	284
239.1251	320
249.1463	445
263.1613	487
267.1561	651
269.1716	706
281.1722	999
