Mass spectrum: Creatine; LC-ESI-ITFT; MS2; CE: 100;  [M-H]-
Name: Creatine
Class: Organic acids and derivatives; Carboxylic acids and derivatives; Amino acids, peptides, and analogues
Formula: C4H9N3O2
Exact mass: 131.06948
SMILES: CN(CC(O)=O)C(N)=N
InChI: InChI=1S/C4H9N3O2/c1-7(4(5)6)2-3(8)9/h2H2,1H3,(H3,5,6)(H,8,9)
Instrument: Thermo Scientific Q-Exactive Focus
Instrument type: LC-ESI-ITFT
Ms type: MS2
Ion mode: NEGATIVE
Ionization: ESI
Collision energy: 100
Column name: Acquity CSHC18
Retention time: 2.586 min
Base peak: 130.06219
Precursor m/z: 130.06219
Precursor type: [M-H]-
m/z	relative intensity
65.6583	910
71.118	920
71.4579	999
71.4698	902
81.1933	920
91.5707	928
93.1068	877
97.3834	872
101.1081	978
108.0855	923
