Mass spectrum: 11-deoxy Prostaglandin F2-beta; ESI-TOF; MS2; CE: 0.6458333;  [M+H]+
Name: 11-deoxy Prostaglandin F2-beta
Class: NA
Formula: C20H34O4
Exact mass: 338.24571
SMILES: CCCCC[C@H](O)/C=C/[C@H]1CC[C@@H](O)[C@@H]1C/C=C\CCCC(O)=O
InChI: InChI=1S/C20H34O4/c1-2-3-6-9-17(21)14-12-16-13-15-19(22)18(16)10-7-4-5-8-11-20(23)24/h4,7,12,14,16-19,21-22H,2-3,5-6,8-11,13,15H2,1H3,(H,23,24)/b7-4-,14-12+/t16-,17-,18+,19+/m0/s1
Instrument: waters xevo g2 TOF
Instrument type: ESI-TOF
Ms type: MS2
Ion mode: POSITIVE
Ionization: ESI
Collision energy: 0.6458333
Column name: Acquity CSHC18
Retention time: 3.946 min
Base peak: 339.25371
Precursor m/z: 339.25371
Precursor type: [M+H]+
m/z	relative intensity
67.0542	92
79.054	111
81.0707	280
83.0861	33
91.0548	465
93.071	263
95.0868	207
105.0711	638
107.0864	120
109.1021	97
117.0713	392
119.0861	520
120.0882	53
121.1019	172
123.1187	26
128.0627	31
129.0706	262
131.0861	928
133.103	337
135.0807	75
137.133	19
141.0714	354
142.0763	39
143.0862	225
145.1027	844
147.1174	97
149.1334	38
155.0856	211
156.0896	39
157.1046	533
159.1177	386
161.0981	66
165.02	33
169.1019	483
171.1189	295
172.1182	28
173.1325	265
175.1491	186
183.1185	303
185.1365	49
187.1127	603
188.1135	64
189.1629	58
191.016	134
197.111	92
198.136	17
201.1273	334
202.1324	15
203.1788	25
205.1228	72
207.1371	16
213.1638	22
233.1556	47
241.1958	179
243.2114	226
247.119	110
257.2253	57
267.2114	327
285.2219	768
303.2327	999
304.2362	140
318.1293	19
