Mass spectrum: Gossypetin 3,3'-dimethyl ether-1; LC-ESI-QTOF; MS2; CE: 50eV;  [M-H]-
Name: Gossypetin 3,3'-dimethyl ether-1
Class: Flavonol
Formula: C17H14O8
Exact mass: 346.0689
SMILES: COC1=C(C=CC(=C1)C2=C(C(=O)C3=C(O2)C(=C(C=C3O)O)O)OC)O
InChI: InChI=1S/C17H14O8/c1-23-11-5-7(3-4-8(11)18)15-17(24-2)14(22)12-9(19)6-10(20)13(21)16(12)25-15/h3-6,18-21H,1-2H3
Instrument: TIMS-TOF Pro, Bruker Daltonik; Elute UHPLC System, Bruker Daltonik
Instrument type: LC-ESI-QTOF
Ms type: MS2
Ion mode: NEGATIVE
Ionization: ESI
Collision energy: 50eV
Column name: Acquity CSHC18
Retention time: 6.892 min
Base peak: 345.0561
Precursor m/z: 345.0561
Precursor type: [M-H]-
Precursor intensity: 65379.63
m/z	relative intensity
65.0016	19
66.0085	13
69.0912	6
90.4227	6
92.6478	4
94.0034	12
97.9967	9
109.0296	25
109.9998	29
111.0093	5
112.065	4
115.0524	6
121.027	45
122.03	7
123.0073	9
125.0371	7
127.048	5
131.0512	6
139.0019	9
143.0444	4
145.0256	14
147.0415	10
149.0232	12
149.9929	9
151.0007	8
153.0283	4
155.7043	6
157.5236	8
159.0431	23
159.9491	7
161.0197	8
161.8732	4
163.0146	6
165.9874	21
167.5654	4
169.6271	5
170.6121	11
171.0428	40
172.0899	6
173.0199	4
175.1627	6
178.0059	5
181.1839	5
186.0315	14
187.0372	29
187.6263	5
189.0155	16
191.0368	6
192.1149	9
194.4033	5
198.0254	12
202.0215	10
203.0312	8
214.023	6
215.9302	4
230.0174	4
231.0252	13
242.0189	13
243.0257	20
258.0101	23
259.0216	23
270.012	9
273.044	9
274.0454	9
285.0326	32
286.005	14
287.0165	139
288.0191	10
301.0312	127
302.0387	229
303.037	21
304.0479	5
315.0104	61
316.0102	10
329.865	5
329.9624	8
330.034	999
330.203	7
330.3262	4
330.4609	6
330.5985	6
330.6989	5
330.9684	7
331.0344	79
331.2094	4
332.0392	38
345.0531	247
345.2904	7
345.4926	6
