Mass spectrum: N-Decanoyl-L-homoserine lactone; LC-ESI-ITFT; MS2; CE: 40;  [M+H]+
Name: N-Decanoyl-L-homoserine lactone
Class: NA
Formula: C14H25NO3
Exact mass: 255.18344
SMILES: CCCCCCCCCC(=O)N[C@H]1CCOC1=O
InChI: InChI=1S/C14H25NO3/c1-2-3-4-5-6-7-8-9-13(16)15-12-10-11-18-14(12)17/h12H,2-11H2,1H3,(H,15,16)/t12-/m0/s1
Instrument: Thermo Scientific Q-Exactive Focus
Instrument type: LC-ESI-ITFT
Ms type: MS2
Ion mode: POSITIVE
Ionization: ESI
Collision energy: 40
Column name: Acquity CSHC18
Retention time: 1.467 min
Base peak: 256.19073
Precursor m/z: 256.19073
Precursor type: [M+H]+
m/z	relative intensity
56.05	499
57.0704	999
67.0547	313
71.0859	339
74.024	461
74.0604	452
81.0702	298
84.0447	152
95.0858	219
102.0552	237
