Mass spectrum: 4-ACETAMIDOBUTANOATE; LC-ESI-QTOF; MS2; CE: 10;  [M-H]-
Name: 4-ACETAMIDOBUTANOATE
Class: NA
Formula: C6H11NO3
Exact mass: 145.07389
SMILES: CC(=O)NCCCC(O)=O
InChI: InChI=1S/C6H11NO3/c1-5(8)7-4-2-3-6(9)10/h2-4H2,1H3,(H,7,8)(H,9,10)
Instrument: Agilent 6530Â Q-TOF LC/MS
Instrument type: LC-ESI-QTOF
Ms type: MS2
Ion mode: NEGATIVE
Ionization: ESI
Collision energy: 10
Column name: NA
Retention time: 0.200 min
Base peak: 144.06686
Precursor m/z: 144.06686
Precursor type: [M-H]-
Precursor intensity: 160
m/z	relative intensity
42.0062	114
52.0206	142
54.046	152
58.0422	265
84.0449	331
98.062	531
100.0912	669
102.0745	721
126.0624	755
144.0841	999
