Mass spectrum: Indolebutyric acid; LC-ESI-ITFT; MS2; CE: 45eV;  [M+H]+
Name: Indolebutyric acid
Class: auxin
Formula: C12H13NO2
Exact mass: 203.0946
SMILES: C1=CC=C2C(=C1)C(=CN2)CCCC(=O)O
InChI: InChI=1S/C12H13NO2/c14-12(15)7-3-4-9-8-13-11-6-2-1-5-10(9)11/h1-2,5-6,8,13H,3-4,7H2,(H,14,15)
Instrument: LTQ Orbitrap XL, Thermo Scientfic; Dionex Ultimate 300
Instrument type: LC-ESI-ITFT
Ms type: MS2
Ion mode: POSITIVE
Ionization: ESI
Collision energy: 45eV
Column name: Alltima C18
Retention time: 16.52 min
Base peak: 204.1017
Precursor m/z: 204.1017
Precursor type: [M+H]+
m/z	relative intensity
119.5064	616
162.0148	595
175.9443	999
