Mass spectrum: F6P; LC-ESI-QTOF; MS2; CE: 100;  [M-H]-
Name: F6P
Class: NA
Formula: C6H13O9P
Exact mass: 260.02972
SMILES: OCC(=O)[C@@H](O)[C@H](O)[C@H](O)COP(O)(O)=O
InChI: InChI=1S/C6H13O9P/c7-1-3(8)5(10)6(11)4(9)2-15-16(12,13)14/h4-7,9-11H,1-2H2,(H2,12,13,14)/t4-,5-,6-/m1/s1
Instrument: impact II
Instrument type: LC-ESI-QTOF
Ms type: MS2
Ion mode: NEGATIVE
Ionization: ESI
Collision energy: 100
Column name: Acquity CSHC18
Retention time: 1.742 min
Base peak: 259.02270
Precursor m/z: 259.02270
Precursor type: [M-H]-
m/z	relative intensity
62.9641	134
78.9589	999
