Mass spectrum: LIPOAMIDE; LC-ESI-QFT; MS2; CE: 30eV;  [M+H]+
Name: LIPOAMIDE
Class: NA
Formula: C8H15NOS2
Exact mass: 205.05951
SMILES: NC(=O)CCCCC1CCSS1
InChI: InChI=1S/C8H15NOS2/c9-8(10)4-2-1-3-7-5-6-11-12-7/h7H,1-6H2,(H2,9,10)
Instrument: Q-Exactive Orbitrap, Thermo Scientfic; Ultimate 3000 HPLC, Thermo Scientfic
Instrument type: LC-ESI-QFT
Ms type: MS2
Ion mode: POSITIVE
Ionization: ESI
Collision energy: 30eV
Column name: Acquity CSHC18
Retention time: 7.703 min
Base peak: 206.0668
Precursor m/z: 206.0668
Precursor type: [M+H]+
Precursor intensity: 169
m/z	relative intensity
60.5816	10
69.1285	14
72.0816	15
79.2124	12
81.0707	13
87.0446	13
94.8081	12
95.0861	55
101.0425	390
104.9831	25
108.2608	12
117.1182	14
123.0807	62
127.0581	116
137.0424	18
138.0501	12
140.1073	24
149.0233	13
151.3044	13
161.0456	968
162.0492	18
171.0299	193
184.628	13
187.5241	12
189.0405	999
190.0438	58
192.222	14
202.8856	13
225.1895	14
