Mass spectrum: L-Valine; LC-ESI-ITFT; MS2; CE: 60;  [M+H]+
Name: L-Valine
Class: Organic acids and derivatives; Carboxylic acids and derivatives; Amino acids, peptides, and analogues
Formula: C5H11NO2
Exact mass: 117.07898
SMILES: CC(C)[C@H](N)C(O)=O
InChI: InChI=1S/C5H11NO2/c1-3(2)4(6)5(7)8/h3-4H,6H2,1-2H3,(H,7,8)/t4-/m0/s1
Instrument: Thermo Scientific Q-Exactive Focus
Instrument type: LC-ESI-ITFT
Ms type: MS2
Ion mode: POSITIVE
Ionization: ESI
Collision energy: 60
Column name: Acquity CSHC18
Retention time: 2.015 min
Base peak: 118.08626
Precursor m/z: 118.08626
Precursor type: [M+H]+
m/z	relative intensity
53.0028	248
53.998	78
56.0501	999
56.3368	84
57.0579	143
78.5828	82
84.5127	92
101.6416	77
123.9034	80
130.4565	79
