Mass spectrum: Budlein A isolvalerate; LC-ESI-ITFT; MS2; CE: 50eV;  [M+H]+
Name: Budlein A isolvalerate
Class: Sesquiterpenelactone; Heliangolide
Formula: C20H24O7
Exact mass: 376.1522
SMILES: CC(C)CC(=O)O[C@@H]3C[C@@]1(C)OC(=CC1=O)C(CO)=C[C@@H]2OC(=O)C(=C)[C@@H]23
InChI: InChI=1S/C20H24O7/c1-10(2)5-17(23)25-15-8-20(4)16(22)7-13(27-20)12(9-21)6-14-18(15)11(3)19(24)26-14/h6-7,10,14-15,18,21H,3,5,8-9H2,1-2,4H3/t14-,15+,18-,20+/m0/s1
Instrument: Q Exactive Plus, ThermoFisher Scientific
Instrument type: LC-ESI-ITFT
Ms type: MS2
Ion mode: POSITIVE
Ionization: ESI
Collision energy: 50eV
Column name: Acquity CSHC18
Retention time: 6.062 min
Base peak: 377.1586
Precursor m/z: 377.1586
Precursor type: [M+H]+
Precursor intensity: 750018300
m/z	relative intensity
53.5221	10
57.0707	25
68.5888	83
85.0653	138
98.4335	10
109.0847	10
131.6312	10
133.0636	13
179.8564	9
199.0421	11
211.0752	42
213.0906	11
229.0849	132
239.0713	17
247.0967	43
253.9941	10
257.0816	196
275.0908	157
293.1013	999
294.1082	22
307.0999	13
325.547	14
377.1607	11
