Mass spectrum: 20(S)-Ginsenoside Rh2; LC-ESI-QFT; MS2; CE: 15,30,45 (NCE);  [M+FA-H]-
Name: 20(S)-Ginsenoside Rh2
Class: NA
Formula: C36H62O8
Exact mass: 622.4445
SMILES: CC(C)=CCCC(C)(O)C1CCC2(C)C1C(O)CC1C3(C)CCC(OC4OC(CO)C(O)C(O)C4O)C(C)(C)C3CCC21C
InChI: InChI=1S/C36H62O8/c1-20(2)10-9-14-36(8,42)21-11-16-35(7)27(21)22(38)18-25-33(5)15-13-26(32(3,4)24(33)12-17-34(25,35)6)44-31-30(41)29(40)28(39)23(19-37)43-31/h10,21-31,37-42H,9,11-19H2,1-8H3
Instrument: QE Focus, Thermo Scientfic; UPLC I-Class, Waters
Instrument type: LC-ESI-QFT
Ms type: MS2
Ion mode: NEGATIVE
Ionization: ESI
Collision energy: 15,30,45 (NCE)
Column name: Acquity CSHC18
Retention time: 4.666 min
Base peak: 667.4434
Precursor m/z: 667.4434
Precursor type: [M+FA-H]-
Precursor intensity: 81837380
m/z	relative intensity
79.1195	867
121.5039	963
456.8775	999
