Mass spectrum: NORLEUCINE; LC-ESI-QTOF; MS2; CE: 20;  [M+H]+
Name: NORLEUCINE
Class: NA
Formula: C6H13NO2
Exact mass: 131.09463
SMILES: CCCC[C@H](N)C(O)=O
InChI: InChI=1S/C6H13NO2/c1-2-3-4-5(7)6(8)9/h5H,2-4,7H2,1H3,(H,8,9)/t5-/m0/s1
Instrument: Agilent 6530Â Q-TOF LC/MS
Instrument type: LC-ESI-QTOF
Ms type: MS2
Ion mode: POSITIVE
Ionization: ESI
Collision energy: 20
Column name: NA
Retention time: 0.200 min
Base peak: 132.10048
Precursor m/z: 132.10048
Precursor type: [M+H]+
Precursor intensity: 166.5
m/z	relative intensity
41.0573	27
43.0718	39
44.0629	143
55.0562	150
62.9425	232
69.0945	423
86.129	445
86.4533	999
