Mass spectrum: NICOTINAMIDE HYPOXANTHINE DINUCLEOTIDE; LC-ESI-QFT; MS2; CE: 30eV;  [M+H]+
Name: NICOTINAMIDE HYPOXANTHINE DINUCLEOTIDE
Class: NA
Formula: C21H26N6O15P2
Exact mass: 664.09314
SMILES: O=P([O-])(OP(O)(OCC1C(O)C(O)C(N2C=NC3=C2NC=NC3=O)O1)=O)OCC(O4)C(O)C(O)C4[N+]5=CC=CC(C(N)=O)=C5
InChI: InChI=1S/C21H26N6O15P2/c22-17(32)9-2-1-3-26(4-9)20-15(30)13(28)10(40-20)5-38-43(34,35)42-44(36,37)39-6-11-14(29)16(31)21(41-11)27-8-25-12-18(27)23-7-24-19(12)33/h1-4,7-8,10-11,13-16,20-21,28-31H,5-6H2,(H4-,22,23,24,32,33,34,35,36,37)
Instrument: Q-Exactive Orbitrap, Thermo Scientfic; Ultimate 3000 HPLC, Thermo Scientfic
Instrument type: LC-ESI-QFT
Ms type: MS2
Ion mode: POSITIVE
Ionization: ESI
Collision energy: 30eV
Column name: Acquity CSHC18
Retention time: 0.841 min
Base peak: 665.1004
Precursor m/z: 665.1004
Precursor type: [M+H]+
Precursor intensity: 112
m/z	relative intensity
55.7493	32
57.5415	31
68.7464	32
74.7236	32
89.5786	35
97.0291	999
103.6012	34
114.6605	41
115.62	32
120.5461	37
123.0557	141
128.4996	37
137.0461	263
152.8595	40
154.6832	40
161.812	34
179.3061	38
181.1023	39
199.4315	33
214.1639	42
226.8207	36
227.2116	40
233.0673	558
263.6307	35
290.4843	41
320.1694	53
