Mass spectrum: Carnosine; LC-ESI-ITFT; MS2; CE: 60;  [M+H]+
Name: Carnosine
Class: Organic acids and derivatives; Peptidomimetics; Hybrid peptides
Formula: C9H14N4O3
Exact mass: 226.10659
SMILES: NCCC(=O)N[C@@H](CC1=CN=CN1)C(O)=O
InChI: InChI=1S/C9H14N4O3/c10-2-1-8(14)13-7(9(15)16)3-6-4-11-5-12-6/h4-5,7H,1-3,10H2,(H,11,12)(H,13,14)(H,15,16)/t7-/m0/s1
Instrument: Thermo Scientific Q-Exactive Focus
Instrument type: LC-ESI-ITFT
Ms type: MS2
Ion mode: POSITIVE
Ionization: ESI
Collision energy: 60
Column name: Acquity CSHC18
Retention time: 1.749 min
Base peak: 227.11388
Precursor m/z: 227.11388
Precursor type: [M+H]+
m/z	relative intensity
54.0345	94
56.0501	804
66.0344	53
68.05	216
81.0452	321
82.053	302
83.0608	999
93.0451	525
95.0608	141
110.0716	215
