Mass spectrum: 7-Methoxy-6-(3-methylbut-2-enoxy)chromen-2-one; LC-ESI-ITFT; MS2; CE: 45eV;  [M+H]+
Name: 7-Methoxy-6-(3-methylbut-2-enoxy)chromen-2-one
Class: coumarin
Formula: C15H16O4
Exact mass: 260.1049
SMILES: CC(=CCOC1=C(C=C2C(=C1)C=CC(=O)O2)OC)C
InChI: InChI=1S/C15H16O4/c1-10(2)6-7-18-14-8-11-4-5-15(16)19-12(11)9-13(14)17-3/h4-6,8-9H,7H2,1-3H3
Instrument: LTQ Orbitrap XL, Thermo Scientfic; Dionex Ultimate 300
Instrument type: LC-ESI-ITFT
Ms type: MS2
Ion mode: POSITIVE
Ionization: ESI
Collision energy: 45eV
Column name: Alltima C18
Retention time: 24.6 min
Base peak: 261.1098
Precursor m/z: 261.1098
Precursor type: [M+H]+
m/z	relative intensity
133.0347	997
182.8787	999
