Mass spectrum: naringenin; LC-ESI-ITFT; MS2; CE: 0.3;  [M+H]+
Name: naringenin
Class: flavanones
Formula: C15H12O5
Exact mass: 272.0685
SMILES: C1C(OC2=CC(=CC(=C2C1=O)O)O)C3=CC=C(C=C3)O
InChI: InChI=1S/C15H12O5/c16-9-3-1-8(2-4-9)13-7-12(19)15-11(18)5-10(17)6-14(15)20-13/h1-6,13,16-18H,7H2
Instrument: LTQ-Orbitrap XL hybrid mass spectrometer (Thermo Scientific)
Instrument type: LC-ESI-ITFT
Ms type: MS2
Ion mode: POSITIVE
Ionization: ESI
Collision energy: 0.3
Column name: Acquity CSHC18
Retention time: 9.696 min
Base peak: 273.0767
Precursor m/z: 273.0767
Precursor type: [M+H]+
Precursor intensity: 44590400
m/z	relative intensity
65.9183	7
68.0085	7
70.5146	8
79.4772	8
82.0957	7
83.8831	7
88.0717	7
97.8044	6
103.163	8
103.1641	6
103.1691	7
107.4284	6
112.5657	7
119.0493	28
121.065	8
123.0442	8
147.0445	777
147.5634	7
147.8236	8
151.0395	13
153.0187	999
153.0248	9
153.8456	12
161.1911	10
161.2015	7
179.0345	49
189.0553	55
196.0912	19
205.0878	6
231.0664	41
255.0661	8
273.0736	9
