Mass spectrum: Dihydroorotic acid; LC-ESI-QTOF; MS2; CE: 15 / 50;  [M-H]-
Name: Dihydroorotic acid
Class: Alpha amino acids and derivatives
Formula: C5H6N2O4
Exact mass: 158.0328
SMILES: OC(=O)[C@@H]1CC(=O)NC(=O)N1
InChI: InChI=1S/C5H6N2O4/c8-3-1-2(4(9)10)6-5(11)7-3/h2H,1H2,(H,9,10)(H2,6,7,8,11)/t2-/m0/s1
Instrument: impact II
Instrument type: LC-ESI-QTOF
Ms type: MS2
Ion mode: NEGATIVE
Ionization: ESI
Collision energy: 15 / 50
Column name: Acquity CSHC18
Retention time: 0.686 min
Base peak: 157.0255
Precursor m/z: 157.0255
Precursor type: [M-H]-
m/z	relative intensity
113.0356	999
114.0195	281
