Mass spectrum: Quercetin 3-galactoside; LC-ESI-QTOF; MS2; CE: 50eV;  [M-H]-
Name: Quercetin 3-galactoside
Class: Flavonol
Formula: C21H20O12
Exact mass: 464.0955
SMILES: C1=CC(=C(C=C1C2=C(C(=O)C3=C(C=C(C=C3O2)O)O)OC4C(C(C(C(O4)CO)O)O)O)O)O
InChI: InChI=1S/C21H20O12/c22-6-13-15(27)17(29)18(30)21(32-13)33-20-16(28)14-11(26)4-8(23)5-12(14)31-19(20)7-1-2-9(24)10(25)3-7/h1-5,13,15,17-18,21-27,29-30H,6H2
Instrument: TIMS-TOF Pro, Bruker Daltonik; Elute UHPLC System, Bruker Daltonik
Instrument type: LC-ESI-QTOF
Ms type: MS2
Ion mode: NEGATIVE
Ionization: ESI
Collision energy: 50eV
Column name: Acquity CSHC18
Retention time: 5.151 min
Base peak: 463.0803
Precursor m/z: 463.0803
Precursor type: [M-H]-
Precursor intensity: 48365
m/z	relative intensity
52.7814	1
72.3797	1
83.5478	1
91.016	1
99.0139	1
108.0195	20
109.028	5
109.9404	1
111.965	1
119.0113	2
121.0288	6
122.03	1
124.5299	2
133.026	1
135.0046	4
139.0373	1
148.0144	5
149.0194	7
150.2828	3
151.0008	98
151.6175	1
151.7865	2
153.005	3
155.9208	2
163.0026	9
164.0107	2
165.4597	1
171.6972	3
173.2171	1
174.0273	2
175.0418	2
176.0696	1
178.0291	1
178.9982	10
179.9974	2
180.7937	1
186.4297	3
188.0435	2
192.0036	1
195.048	1
201.0501	4
203.0313	4
209.2179	1
213.2534	2
216.0393	1
218.349	2
219.8614	1
221.8531	2
223.8798	1
225.0515	2
225.674	2
227.2305	2
227.7703	2
229.0524	1
230.6205	1
232.9297	1
235.4802	2
236.6503	3
239.0284	4
241.9258	3
243.0282	5
244.0272	3
246.0437	2
249.6753	1
252.3733	3
254.0267	3
255.0253	11
256.0284	4
258.5424	2
259.9081	2
263.3255	1
267.7395	2
271.0209	23
271.3143	1
272.0212	4
275.0514	1
279.6281	2
282.8991	2
287.0514	1
298.0023	1
299.013	3
299.8206	1
300.0227	458
300.2385	2
300.3423	1
300.4817	1
300.6047	1
300.7933	1
301.008	152
301.3487	1
301.4226	2
301.4828	2
301.68	1
301.795	1
302.0306	26
302.4446	1
302.6914	1
303.0344	4
307.8623	1
329.3728	1
344.0406	1
457.2256	1
462.0664	7
462.5681	1
462.68	2
462.7445	1
462.8513	2
463.06	999
463.2839	2
463.3874	3
463.5351	4
