Mass spectrum: Quercetagetin 3,3'-dimethyl ether; LC-ESI-QTOF; MS2; CE: 50eV;  [M+H]+
Name: Quercetagetin 3,3'-dimethyl ether
Class: Flavonol
Formula: C17H14O8
Exact mass: 346.0689
SMILES: COC1=C(C=CC(=C1)C2=C(C(=O)C3=C(O2)C=C(C(=C3O)O)O)OC)O
InChI: InChI=1S/C17H14O8/c1-23-10-5-7(3-4-8(10)18)16-17(24-2)15(22)12-11(25-16)6-9(19)13(20)14(12)21/h3-6,18-21H,1-2H3
Instrument: TIMS-TOF Pro, Bruker Daltonik; Elute UHPLC System, Bruker Daltonik
Instrument type: LC-ESI-QTOF
Ms type: MS2
Ion mode: POSITIVE
Ionization: ESI
Collision energy: 50eV
Column name: Acquity CSHC18
Retention time: 6.648 min
Base peak: 347.0732
Precursor m/z: 347.0732
Precursor type: [M+H]+
Precursor intensity: 137964.4
m/z	relative intensity
47.2065	12
111.0436	8
124.0518	15
132.0474	10
151.0393	45
153.0112	13
159.0435	11
163.0342	25
166.9963	45
176.0429	20
187.0406	12
197.0194	11
215.0382	28
233.0452	58
240.5132	11
244.0496	13
246.049	28
256.994	10
260.9926	14
261.0361	97
262.0419	13
271.022	8
273.0317	10
274.0446	12
289.0313	94
300.9969	12
303.029	27
308.0905	11
316.0193	34
317.0271	50
331.041	139
332.0492	999
333.0532	101
334.0616	9
346.2253	10
347.0407	112
