Mass spectrum: Triethanolamine; LC-ESI-ITFT; MS2; CE: 20;  [M+H]+
Name: Triethanolamine
Class: Organonitrogen compounds; Amines; Alkanolamines
Formula: C6H15NO3
Exact mass: 149.10519
SMILES: OCCN(CCO)CCO
InChI: InChI=1S/C6H15NO3/c8-4-1-7(2-5-9)3-6-10/h8-10H,1-6H2
Instrument: Thermo Scientific Q-Exactive Focus
Instrument type: LC-ESI-ITFT
Ms type: MS2
Ion mode: POSITIVE
Ionization: ESI
Collision energy: 20
Column name: Acquity CSHC18
Retention time: 0.630 min
Base peak: 150.11247
Precursor m/z: 150.11247
Precursor type: [M+H]+
m/z	relative intensity
68.0499	33
70.0656	999
84.0811	49
86.0967	19
88.076	559
91.8656	9
106.0865	45
114.0915	147
132.1019	313
150.1124	95
