Mass spectrum: phosphoserine; LC-ESI-QTOF; MS2; CE: -10, -35, -60V;  [M-H]-
Name: phosphoserine
Class: NA
Formula: C3H8NO6P
Exact mass: 185.0089
SMILES: C(C(C(=O)O)N)OP(=O)(O)O
InChI: InChI=1S/C3H8NO6P/c4-2(3(5)6)1-10-11(7,8)9/h2H,1,4H2,(H,5,6)(H2,7,8,9)
Instrument: TripleToF 5600; Sciex
Instrument type: LC-ESI-QTOF
Ms type: MS2
Ion mode: NEGATIVE
Ionization: ESI
Collision energy: -10, -35, -60V
Column name: Acquity CSHC18
Retention time: 7.172 min
Base peak: 184.0022
Precursor m/z: 184.0022
Precursor type: [M-H]-
Precursor intensity: 23205.69
m/z	relative intensity
76.971	340
78.9614	999
80.3713	86
83.0495	91
87.0457	389
89.0271	81
94.9784	86
96.9711	687
154.9518	162
166.9884	81
172.1016	81
173.0864	81
174.1112	121
183.0423	123
184.0061	496
