Mass spectrum: F6P; LC-ESI-QTOF; MS2; CE: 60;  [M-H]-
Name: F6P
Class: NA
Formula: C6H13O9P
Exact mass: 260.02972
SMILES: C(C(C(C(C(=O)CO)O)O)O)OP(=O)(O)O
InChI: InChI=1S/C6H13O9P/c7-1-3(8)5(10)6(11)4(9)2-15-16(12,13)14/h4-7,9-11H,1-2H2,(H2,12,13,14)
Instrument: impact II
Instrument type: LC-ESI-QTOF
Ms type: MS2
Ion mode: NEGATIVE
Ionization: ESI
Collision energy: 60
Column name: Acquity CSHC18
Retention time: 1.683 min
Base peak: 259.02200
Precursor m/z: 259.02200
Precursor type: [M-H]-
m/z	relative intensity
59.0135	8
71.0141	5
78.959	999
78.9689	31
79.0306	6
96.9693	65
