Mass spectrum: L-Glutamine; ESI-TOF; MS2; CE: 6.0000000;  [M+H]+
Name: L-Glutamine
Class: NA
Formula: C5H10N2O3
Exact mass: 146.06914
SMILES: NC(CCC(N)=O)C(O)=O
InChI: InChI=1S/C5H10N2O3/c6-3(5(9)10)1-2-4(7)8/h3H,1-2,6H2,(H2,7,8)(H,9,10)
Instrument: waters xevo g2 TOF
Instrument type: ESI-TOF
Ms type: MS2
Ion mode: POSITIVE
Ionization: ESI
Collision energy: 6.0000000
Column name: Acquity CSHC18
Retention time: 0.512 min
Base peak: 147.07714
Precursor m/z: 147.07714
Precursor type: [M+H]+
m/z	relative intensity
84.0458	287
85.0485	12
95.9745	3
98.9642	11
99.9702	44
101.0718	15
102.0738	18
108.962	2
114.9714	15
115.9675	5
117.9807	8
119.9768	3
127.958	3
130.0684	999
131.0539	209
132.0551	24
132.958	2
140.9634	23
145.0183	13
147.1133	528
