Mass spectrum: N-Acetylneuraminic acid; ESI-TOF; MS2; CE: 6.0000000;  [M+H]+
Name: N-Acetylneuraminic acid
Class: NA
Formula: C11H19NO9
Exact mass: 309.10598
SMILES: CC(=O)NC1C(O)CC(O)(OC1C(O)C(O)CO)C(O)=O
InChI: InChI=1S/C11H19NO9/c1-4(14)12-7-5(15)2-11(20,10(18)19)21-9(7)8(17)6(16)3-13/h5-9,13,15-17,20H,2-3H2,1H3,(H,12,14)(H,18,19)
Instrument: waters xevo g2 TOF
Instrument type: ESI-TOF
Ms type: MS2
Ion mode: POSITIVE
Ionization: ESI
Collision energy: 6.0000000
Column name: Acquity CSHC18
Retention time: 0.626 min
Base peak: 310.11398
Precursor m/z: 310.11398
Precursor type: [M+H]+
m/z	relative intensity
112.0389	4
121.0289	66
122.0612	4
123.0438	4
135.9921	77
135.9922	62
166.0505	4
167.0343	134
197.0451	224
214.073	49
250.9555	49
274.0925	999
275.0959	767
276.0977	78
288.109	177
288.1093	48
292.1042	439
293.1065	143
306.1202	50
310.1134	190
314.0858	4
319.0369	50
332.0958	298
346.1117	63
641.2024	84
672.1304	213
