Mass spectrum: O-acyl sugar AS2; LC-ESI-QTOF; MS2; CE: 22.5eV; [M+Na]+
Name: O-acyl sugar AS2
Class: O-acyl sugar
Formula: C26H44O14
Exact mass: 580.2731
SMILES: CC(CC)C(=O)O[C@H]1[C@H](O[C@H](CO)[C@@H](OC(=O)C(C)CC)[C@@H]1OC(=O)C(C)C)O[C@]1(CO)O[C@H](CO)[C@@H](O)[C@@H]1O
InChI: InChI=1S/C26H44O14/c1-7-13(5)23(33)36-18-16(10-28)35-25(40-26(11-29)21(31)17(30)15(9-27)39-26)20(38-24(34)14(6)8-2)19(18)37-22(32)12(3)4/h12-21,25,27-31H,7-11H2,1-6H3/t13?,14?,15-,16-,17-,18-,19+,20-,21+,25-,26+/m1/s1
Instrument: Microtof-q MS
Instrument type: LC-ESI-QTOF
Ms type: MS2
Ion mode: POSITIVE
Ionization: ESI
Collision energy: 22.5eV
Column name: Acquity CSH C18 column (particle size 1.7 μm, column length 2.1 × 50 mm) (Waters)
Retention time: NA
Base peak: 603.2663
Precursor m/z: 603.2663
Precursor type: [M+Na]+
m/z	relative intensity
185.0404	44
339.1448	66
353.1583	75
441.2048	338
603.2663	999
