Mass spectrum: Colchicine; LC-ESI-ITFT; MS2; CE: 45eV;  [M+H]+
Name: Colchicine
Class: alkaloid
Formula: C22H25NO6
Exact mass: 399.1682
SMILES: CC(=O)NC1CCC2=CC(=C(C(=C2C3=CC=C(C(=O)C=C13)OC)OC)OC)OC
InChI: InChI=1S/C22H25NO6/c1-12(24)23-16-8-6-13-10-19(27-3)21(28-4)22(29-5)20(13)14-7-9-18(26-2)17(25)11-15(14)16/h7,9-11,16H,6,8H2,1-5H3,(H,23,24)
Instrument: LTQ Orbitrap XL, Thermo Scientfic; Dionex Ultimate 300
Instrument type: LC-ESI-ITFT
Ms type: MS2
Ion mode: POSITIVE
Ionization: ESI
Collision energy: 45eV
Column name: Alltima C18
Retention time: 20.17 min
Base peak: 400.1736
Precursor m/z: 400.1736
Precursor type: [M+H]+
m/z	relative intensity
203.1605	2
217.1746	1
231.2048	2
245.093	6
248.1885	2
261.2084	4
266.121	8
273.1443	8
278.1308	65
282.1612	142
292.1497	13
294.1474	58
298.2045	100
305.1657	1
308.3498	39
310.1876	312
321.3983	3
323.2148	31
335.2051	2
337.1922	7
339.3072	33
350.1922	32
358.1782	999
367.1601	48
382.1983	887
