Mass spectrum: Paniculogenin; APCI-ITFT; MS2; CE: 35 CID;  [M+H]+
Name: Paniculogenin
Class: NA
Formula: C27H44O5
Exact mass: 448.31887
SMILES: CC1CC(C2(C(C3C(O2)CC4C3(CCC5C4CC(C6C5(CCC(C6)O)C)O)C)C)OC1)O
InChI: InChI=1S/C27H44O5/c1-14-9-23(30)27(31-13-14)15(2)24-22(32-27)12-19-17-11-21(29)20-10-16(28)5-7-25(20,3)18(17)6-8-26(19,24)4/h14-24,28-30H,5-13H2,1-4H3
Instrument: Orbitrap Elite
Instrument type: APCI-ITFT
Ms type: MS2
Ion mode: POSITIVE
Ionization: APCI
Collision energy: 35 CID
Column name: Acquity CSHC18
Retention time: 0.060 min
Base peak: 449.32660
Precursor m/z: 449.32660
Precursor type: [M+H]+
Precursor intensity: 5376088
m/z	relative intensity
179.1067	34
180.1094	23
181.1121	14
253.1964	9
269.1928	7
271.2057	46
272.208	8
273.2149	6
281.2284	6
287.2007	9
289.2161	197
290.2198	30
291.2242	22
299.2349	10
305.2101	20
317.2497	7
334.2502	4
373.2732	51
375.282	6
395.2912	22
403.3104	19
411.2929	7
413.295	91
429.2964	19
431.3123	999
432.3209	9
