Mass spectrum: p-Coumaric acid; LC-ESI-ITFT; MS2; CE: 35;  [M-H]-
Name: p-Coumaric acid
Class: Phenolic acids
Formula: C9H8O3
Exact mass: 164.0473
SMILES: C=1C=C(C=CC1C(=C(C(=O)O)[H])[H])O
InChI: InChI=1S/C9H8O3/c10-8-4-1-7(2-5-8)3-6-9(11)12/h1-6,10H,(H,11,12)
Instrument: LTQ-Orbitrap Elite, Thermo Scientific Ultimate 3000 ultra-high-pressure liquid chromatography, Thermo Scientific
Instrument type: LC-ESI-ITFT
Ms type: MS2
Ion mode: NEGATIVE
Ionization: ESI
Collision energy: 35
Column name: Acquity CSHC18
Retention time: 7.326 min
Base peak: 163.0403
Precursor m/z: 163.0403
Precursor type: [M-H]-
Precursor intensity: 5814441
m/z	relative intensity
162.0293	17
163.0432	999
