Mass spectrum: C18-04:0 PC; ESI-TOF; MS2; CE: 6.0000000;  [M+H]+
Name: C18-04:0 PC
Class: NA
Formula: C30H62NO7P
Exact mass: 579.42639
SMILES: [H]C([H])([H])C([H])([H])C([H])([H])C(=O)OC([H])(C([H])([H])OC([H])([H])C([H])([H])C([H])([H])C([H])([H])C([H])([H])C([H])([H])C([H])([H])C([H])([H])C([H])([H])C([H])([H])C([H])([H])C([H])([H])C([H])([H])C([H])([H])C([H])([H])C([H])([H])C([H])([H])C([H])([H])[H])C([H])([H])OP(=O)([O-])OC([H])([H])C([H])([H])[N+](C([H])([H])[H])(C([H])([H])[H])C([H])([H])[H]
InChI: InChI=1S/C30H62NO7P/c1-6-8-9-10-11-12-13-14-15-16-17-18-19-20-21-22-25-35-27-29(38-30(32)23-7-2)28-37-39(33,34)36-26-24-31(3,4)5/h29H,6-28H2,1-5H3
Instrument: waters xevo g2 TOF
Instrument type: ESI-TOF
Ms type: MS2
Ion mode: POSITIVE
Ionization: ESI
Collision energy: 6.0000000
Column name: Acquity CSHC18
Retention time: 9.324 min
Base peak: 580.43439
Precursor m/z: 580.43439
Precursor type: [M+H]+
m/z	relative intensity
127.0071	51
145.0174	3
159.033	8
184.0737	29
185.0775	1
282.6582	2
301.7065	4
302.2071	1
309.988	56
310.6978	5
311.1977	1
311.69	1
317.185	1
317.6814	17
318.1855	3
318.6815	21
319.1833	3
319.679	3
320.1791	1
326.0453	3
339.3446	1
374.6739	2
397.3672	3
398.3711	1
492.3819	126
493.3844	26
494.3886	5
554.3539	1
580.4346	999
581.4376	333
