Mass spectrum: Neodiosmin; LC-ESI-QTOF; MS2; CE: 20-40eV;  [M+H]+
Name: Neodiosmin
Class: flavonoid
Formula: C28H32O15
Exact mass: 608.1741
SMILES: CC1(C(C(C(C(O1)(OC2(C(C(C(CO)(OC2(OC3=CC(=C4C(C=C(C=5C=CC(=C(C5)O)OC)OC4=C3)=O)O)[H])[H])(O)[H])(O)[H])[H])[H])(O)[H])(O)[H])(O)[H])[H]
InChI: InChI=1S/C28H32O15/c1-10-21(33)23(35)25(37)27(39-10)43-26-24(36)22(34)19(9-29)42-28(26)40-12-6-14(31)20-15(32)8-17(41-18(20)7-12)11-3-4-16(38-2)13(30)5-11/h3-8,10,19,21-31,33-37H,9H2,1-2H3
Instrument: Impact II, Bruker; Dionex 3000, Thermo Scientific
Instrument type: LC-ESI-QTOF
Ms type: MS2
Ion mode: POSITIVE
Ionization: ESI
Collision energy: 20-40eV
Column name: Acquity CSHC18
Retention time: 5.458 min
Base peak: 609.1798
Precursor m/z: 609.1798
Precursor type: [M+H]+
Precursor intensity: 2343.62
m/z	relative intensity
121.0257	34
122.1034	34
127.0387	36
135.1146	34
177.0893	36
251.1657	50
255.0647	34
289.2745	43
301.0697	999
302.0709	57
303.0763	43
413.2186	50
463.1227	494
464.1247	132
465.1248	49
609.185	100
