Mass spectrum: H-Ile-Pro-OH; LC-ESI-QTOF; MS2; CE: 15.00;  [M-H]-
Name: H-Ile-Pro-OH
Class: NA
Formula: C11H20N2O3
Exact mass: 228.1474
SMILES: CCC(C)C(C(=O)N1CCCC1C(=O)O)N
InChI: InChI=1S/C11H20N2O3/c1-3-7(2)9(12)10(14)13-6-4-5-8(13)11(15)16/h7-9H,3-6,12H2,1-2H3,(H,15,16)
Instrument: Bruker MicrOTOF-Q
Instrument type: LC-ESI-QTOF
Ms type: MS2
Ion mode: NEGATIVE
Ionization: ESI
Collision energy: 15.00
Column name: Acquity CSHC18
Retention time: NA
Base peak: 227.1401
Precursor m/z: 227.1401
Precursor type: [M-H]-
m/z	relative intensity
45.42	27
45.86	48
46.32	34
55.4	46
64.27	37
66.07	44
68.06	39
78.82	31
81.65	61
86.89	46
90.43	41
92.39	26
95.53	43
95.84	39
96.16	35
104	49
107.24	65
108.54	34
112.07	80
114.06	999
115.07	39
116.08	49
121.32	71
129.09	57
183.03	34
198.57	27
203.12	44
214.79	28
223.09	40
227.14	174
248.17	30
310.65	37
325.88	30
351.68	48
362.8	34
427.82	49
431.35	31
516.34	46
581.78	28
686.53	27
767.7	31
815	35
836.36	27
884.55	37
931.26	30
936.33	44
