Mass spectrum: PC(16:0/18:1); LC-ESI-QTOF; MS2; CE: 60;  [M+H]+
Name: PC(16:0/18:1)
Class: NA
Formula: C42H82NO8P
Exact mass: 759.57781
SMILES: C[N+](C)(C)CCOP([O-])(=O)OC[C@@H](COC(=O)CCCCCCCCCCCCCCC)OC(=O)CCCCCCCCC/C=C\CCCCCC
InChI: InChI=1S/C42H82NO8P/c1-6-8-10-12-14-16-18-20-21-23-25-27-29-31-33-35-42(45)51-40(39-50-52(46,47)49-37-36-43(3,4)5)38-48-41(44)34-32-30-28-26-24-22-19-17-15-13-11-9-7-2/h16,18,40H,6-15,17,19-39H2,1-5H3/b18-16-/t40-/m1/s1
Instrument: impact II
Instrument type: LC-ESI-QTOF
Ms type: MS2
Ion mode: POSITIVE
Ionization: ESI
Collision energy: 60
Column name: Acquity CSHC18
Retention time: 1.734 min
Base peak: 760.58690
Precursor m/z: 760.58690
Precursor type: [M+H]+
m/z	relative intensity
45.0339	2
57.0701	2
60.0815	10
86.0967	73
87.1005	4
89.0597	2
91.058	2
95.0846	1
98.9838	8
100.1123	2
104.1071	12
124.9997	72
126.004	2
163.0139	1
166.0628	8
167.0546	2
184.0731	999
184.0887	92
184.1065	2
184.1345	3
184.1701	8
184.1827	14
184.2027	4
184.233	1
184.2477	3
184.258	5
184.2997	1
184.3089	2
184.3187	2
184.412	1
184.4691	2
185.0764	64
186.0778	8
207.0326	2
221.0833	4
239.0946	2
281.0509	2
285.0099	1
299.0625	2
300.0593	1
341.0136	1
344.9781	1
359.0278	1
504.3419	1
