Mass spectrum: L-methionine; LC-ESI-QTOF; MS2; CE: 15.00;  [M+H]+
Name: L-methionine
Class: NA
Formula: C5H11NO2S
Exact mass: 149.0510
SMILES: CSCCC(C(=O)O)N
InChI: InChI=1S/C5H11NO2S/c1-9-3-2-4(6)5(7)8/h4H,2-3,6H2,1H3,(H,7,8)
Instrument: Bruker MicrOTOF-Q
Instrument type: LC-ESI-QTOF
Ms type: MS2
Ion mode: POSITIVE
Ionization: ESI
Collision energy: 15.00
Column name: Acquity CSHC18
Retention time: NA
Base peak: 150.0583
Precursor m/z: 150.0583
Precursor type: [M+H]+
m/z	relative intensity
115.0229	9
132.4136	3
133.0309	999
133.1662	3
133.3219	5
133.4012	3
133.5028	4
134.0341	82
135.0261	13
136.8038	4
136.8789	11
150.0596	49
151.0568	7
350.3081	4
401.6407	4
