Mass spectrum: mono-Benzyl phthalate; LC-ESI-ITFT; MS2; CE: 20;  [M-H]-
Name: mono-Benzyl phthalate
Class: NA
Formula: C15H12O4
Exact mass: 256.07356
SMILES: C1=CC=C(C=C1)COC(=O)C2=CC=CC=C2C(=O)O
InChI: InChI=1S/C15H12O4/c16-14(17)12-8-4-5-9-13(12)15(18)19-10-11-6-2-1-3-7-11/h1-9H,10H2,(H,16,17)
Instrument: Thermo Scientific Q-Exactive Focus
Instrument type: LC-ESI-ITFT
Ms type: MS2
Ion mode: NEGATIVE
Ionization: ESI
Collision energy: 20
Column name: Acquity CSHC18
Retention time: 0.643 min
Base peak: 255.06628
Precursor m/z: 255.06628
Precursor type: [M-H]-
m/z	relative intensity
75.0228	24
93.0333	35
105.0333	293
107.049	999
121.0283	594
123.0439	58
147.0076	274
149.0233	82
151.039	15
183.0807	121
