Mass spectrum: 4-Hydroxybenzoic acid; LC-ESI-ITFT; MS2; CE: 100;  [M-H]-
Name: 4-Hydroxybenzoic acid
Class: Benzenoids; Benzene and substituted derivatives; Benzoic acids and derivatives
Formula: C7H6O3
Exact mass: 138.03169
SMILES: OC(=O)C1=CC=C(O)C=C1
InChI: InChI=1S/C7H6O3/c8-6-3-1-5(2-4-6)7(9)10/h1-4,8H,(H,9,10)
Instrument: Thermo Scientific Q-Exactive Focus
Instrument type: LC-ESI-ITFT
Ms type: MS2
Ion mode: NEGATIVE
Ionization: ESI
Collision energy: 100
Column name: Acquity CSHC18
Retention time: 2.453 min
Base peak: 137.02441
Precursor m/z: 137.02441
Precursor type: [M-H]-
m/z	relative intensity
53.6837	676
56.4524	688
78.7043	719
81.6067	729
86.7593	681
87.843	693
90.7579	999
93.5118	761
104.9107	670
117.2898	774
