Mass spectrum: Hesperitin-7-O-beta-rutinosid; LC-ESI-QTOF; MS2; CE: 50eV;  [M-H]-
Name: Hesperitin-7-O-beta-rutinosid
Class: Flavanone
Formula: C28H34O15
Exact mass: 610.1898
SMILES: CC1C(C(C(C(O1)OCC2C(C(C(C(O2)OC3=CC(=C4C(=O)CC(OC4=C3)C5=CC(=C(C=C5)OC)O)O)O)O)O)O)O)O
InChI: InChI=1S/C28H34O15/c1-10-21(32)23(34)25(36)27(40-10)39-9-19-22(33)24(35)26(37)28(43-19)41-12-6-14(30)20-15(31)8-17(42-18(20)7-12)11-3-4-16(38-2)13(29)5-11/h3-7,10,17,19,21-30,32-37H,8-9H2,1-2H3
Instrument: TIMS-TOF Pro, Bruker Daltonik; Elute UHPLC System, Bruker Daltonik
Instrument type: LC-ESI-QTOF
Ms type: MS2
Ion mode: NEGATIVE
Ionization: ESI
Collision energy: 50eV
Column name: Acquity CSHC18
Retention time: 5.598 min
Base peak: 609.1782
Precursor m/z: 609.1782
Precursor type: [M-H]-
Precursor intensity: 144644.4
m/z	relative intensity
57.0328	1
60.5296	3
71.0132	3
81.034	2
87.0079	2
105.7398	3
110.756	2
112.587	2
115.0395	2
125.0238	40
126.0255	2
131.034	1
134.0345	6
136.0151	7
136.8032	2
143.4247	1
147.165	4
149.0589	10
150.0635	3
151.0018	31
151.4381	2
152.0091	2
154.0356	1
158.0357	3
162.4989	3
163.5518	2
164.0099	59
165.017	3
167.0324	3
171.205	2
173.0544	3
174.0327	7
175.0493	2
178.6621	1
181.5824	2
190.048	2
199.0422	4
200.0468	7
204.9289	1
215.0339	3
216.6624	2
218.0571	1
223.7517	2
226.3252	3
227.0349	2
231.0821	1
241.048	2
242.0576	8
243.062	1
257.0734	2
263.0052	1
271.9037	1
284.3272	2
286.0446	7
288.5783	2
289.7795	2
291.3222	2
293.2766	2
295.3351	2
297.1696	2
298.9417	2
300.8367	2
300.9406	2
301.009	5
301.0788	763
301.2115	2
301.4672	3
301.7864	2
301.9206	1
301.9864	2
302.0713	197
302.2385	2
302.3838	1
302.6718	5
302.7459	1
303.0751	12
303.2261	1
303.5667	1
304.0201	1
305.8208	1
307.3779	4
308.7422	2
314.7192	2
320.6602	1
325.0657	4
326.0728	1
331.2781	1
343.073	1
344.4674	2
355.0741	1
374.9511	2
381.5872	1
608.758	1
608.9253	3
609.0888	2
609.1744	999
609.4117	2
609.5665	3
