Mass spectrum: N6-(DELTA2-ISOPENTENYL)-ADENINE; LC-ESI-QTOF; MS2; CE: 20;  [M+H]+
Name: N6-(DELTA2-ISOPENTENYL)-ADENINE
Class: NA
Formula: C10H13N5
Exact mass: 203.11710
SMILES: CC(=CCNC1=NC=NC2=C1NC=N2)C
InChI: InChI=1S/C10H13N5/c1-7(2)3-4-11-9-8-10(13-5-12-8)15-6-14-9/h3,5-6H,4H2,1-2H3,(H2,11,12,13,14,15)
Instrument: Agilent 6530Â Q-TOF LC/MS
Instrument type: LC-ESI-QTOF
Ms type: MS2
Ion mode: POSITIVE
Ionization: ESI
Collision energy: 20
Column name: NA
Retention time: 0.200 min
Base peak: 204.12593
Precursor m/z: 204.12593
Precursor type: [M+H]+
Precursor intensity: 25.5
m/z	relative intensity
41.0273	48
41.0309	125
41.0346	153
41.0383	137
41.0419	103
41.0456	84
41.0493	73
41.053	60
41.0566	48
41.0603	35
62.0562	32
69.0559	47
69.0606	140
69.0654	187
69.0702	166
69.0749	132
69.0797	105
69.0844	86
69.0892	65
69.094	47
69.0987	34
82.0299	41
82.0351	41
82.0403	34
85.0628	32
119.0196	94
119.0259	177
119.0321	186
119.0384	151
119.0446	121
119.0509	93
119.0571	71
119.0634	56
119.0697	44
119.0759	33
136.0383	130
136.045	554
136.0517	937
136.0584	999
136.0651	845
136.0718	678
136.0784	526
136.0851	395
136.0918	298
136.0985	219
136.1052	170
136.1119	122
136.1186	89
136.1252	62
136.1319	44
136.1386	43
136.1453	40
137.063	32
148.0505	68
148.0575	72
148.0645	58
148.0715	52
148.0784	38
158.9844	37
158.9916	45
158.9989	37
