Mass spectrum: (+/-)-beta-Citronellol; LC-ESI-QTOF; MS2; CE: 15.00;  [M+H]+
Name: (+/-)-beta-Citronellol
Class: NA
Formula: C10H20O
Exact mass: 156.1514
SMILES: CC(CCC=C(C)C)CCO
InChI: InChI=1S/C10H20O/c1-9(2)5-4-6-10(3)7-8-11/h5,10-11H,4,6-8H2,1-3H3
Instrument: Bruker MicrOTOF-Q
Instrument type: LC-ESI-QTOF
Ms type: MS2
Ion mode: POSITIVE
Ionization: ESI
Collision energy: 15.00
Column name: Acquity CSHC18
Retention time: NA
Base peak: 157.1587
Precursor m/z: 157.1587
Precursor type: [M+H]+
m/z	relative intensity
158.1558	999
190.934	425
