Mass spectrum: 13,14-dihydro-15-keto Prostaglandin E1; ESI-TOF; MS2; CE: 0.6458333;  [M+H]+
Name: 13,14-dihydro-15-keto Prostaglandin E1
Class: NA
Formula: C20H34O5
Exact mass: 354.24062
SMILES: CCCCCC(=O)CC[C@H]1C(O)CC(=O)C1CCCCCCC(=O)O
InChI: InChI=1S/C20H34O5/c1-2-3-6-9-15(21)12-13-17-16(18(22)14-19(17)23)10-7-4-5-8-11-20(24)25/h16-17,19,23H,2-14H2,1H3,(H,24,25)/t16?,17-,19?/m1/s1
Instrument: waters xevo g2 TOF
Instrument type: ESI-TOF
Ms type: MS2
Ion mode: POSITIVE
Ionization: ESI
Collision energy: 0.6458333
Column name: Acquity CSHC18
Retention time: 3.639 min
Base peak: 355.24862
Precursor m/z: 355.24862
Precursor type: [M+H]+
m/z	relative intensity
67.0529	20
69.0704	20
71.0854	185
81.0705	167
91.0547	158
93.0706	240
99.0809	428
105.071	245
106.074	10
107.0862	136
109.1025	54
117.072	172
119.0871	191
121.0655	78
123.081	45
129.0711	70
131.0863	247
133.1019	132
135.1165	62
141.0987	24
143.0855	109
145.1004	142
147.1174	75
148.0827	18
149.0602	17
151.1073	10
157.1016	131
159.1176	999
160.1207	90
162.1394	8
167.0718	14
169.102	332
171.1165	71
175.1483	123
177.1272	112
183.1168	23
185.1332	197
186.137	18
187.1124	337
188.1064	47
189.1649	33
191.1455	24
199.1493	34
203.1433	337
204.1343	29
205.1221	279
206.1235	22
217.1644	20
227.045	9
255.2107	136
265.195	67
273.2203	171
277.0801	21
283.2054	205
284.208	44
291.2321	178
301.2157	588
302.2191	92
303.2227	7
319.2272	193
320.2307	39
336.1389	25
337.1812	17
357.1822	10
