Mass spectrum: Luteolin 3'-methyl ether; LC-ESI-QTOF; MS2; CE: 50eV;  [M-H]-
Name: Luteolin 3'-methyl ether
Class: Flavone
Formula: C16H12O6
Exact mass: 300.0634
SMILES: COC1=C(C=CC(=C1)C2=CC(=O)C3=C(C=C(C=C3O2)O)O)O
InChI: InChI=1S/C16H12O6/c1-21-14-4-8(2-3-10(14)18)13-7-12(20)16-11(19)5-9(17)6-15(16)22-13/h2-7,17-19H,1H3
Instrument: TIMS-TOF Pro, Bruker Daltonik; Elute UHPLC System, Bruker Daltonik
Instrument type: LC-ESI-QTOF
Ms type: MS2
Ion mode: NEGATIVE
Ionization: ESI
Collision energy: 50eV
Column name: Acquity CSHC18
Retention time: 7.493 min
Base peak: 299.0562
Precursor m/z: 299.0562
Precursor type: [M-H]-
Precursor intensity: 498708.1
m/z	relative intensity
33.2372	4
39.1455	2
56.0322	2
63.0229	43
65.0022	68
66.0065	5
77.038	5
81.034	5
83.0132	63
91.0182	6
94.0363	7
102.5938	4
104.0266	32
104.437	5
105.0389	5
105.4206	5
106.3861	4
106.7116	6
107.3331	7
108.017	10
111.9322	7
113.8016	6
115.0531	9
120.0204	4
121.9976	9
122.9364	2
124.9128	4
130.0414	8
132.0213	34
133.0306	12
134.208	5
135.0056	5
140.0571	6
142.9078	5
144.3382	8
147.6033	5
148.2304	11
149.0243	21
151.0018	60
152.0091	21
155.0451	10
156.0539	10
158.0337	5
160.0361	5
171.0421	7
172.054	8
175.0639	4
179.466	2
183.0429	15
184.0554	4
185.0257	9
188.6486	4
199.0356	12
211.0365	4
214.4262	5
223.2802	7
227.0278	7
228.0363	10
256.0355	91
256.5302	4
257.038	9
257.2176	2
259.5569	2
283.7612	3
283.8701	4
283.987	668
284.181	5
284.2927	8
284.391	5
284.5712	5
284.806	5
285.0322	300
285.1627	4
285.3677	2
285.7301	4
286.034	29
286.3141	2
290.2199	4
294.1332	4
298.7836	3
298.8845	6
299.0535	999
299.2308	3
299.329	6
299.4381	3
