Mass spectrum: Cyanidin; LC-ESI-QTOF; MS2; CE: 50eV;  [M]+
Name: Cyanidin
Class: Anthocyanin
Formula: [C15H11O6]+
Exact mass: 287.0550
SMILES: C1=CC(=C(C=C1C2=[O+]C3=CC(=CC(=C3C=C2O)O)O)O)O
InChI: InChI=1S/C15H10O6/c16-8-4-11(18)9-6-13(20)15(21-14(9)5-8)7-1-2-10(17)12(19)3-7/h1-6H,(H4-,16,17,18,19,20)/p+1
Instrument: TIMS-TOF Pro, Bruker Daltonik; Elute UHPLC System, Bruker Daltonik
Instrument type: LC-ESI-QTOF
Ms type: MS2
Ion mode: POSITIVE
Ionization: ESI
Collision energy: 50eV
Column name: Acquity CSHC18
Retention time: 4.049 min
Base peak: 287.0523
Precursor m/z: 287.0523
Precursor type: [M]+
Precursor intensity: 11508.94
m/z	relative intensity
75.0239	43
137.0234	35
231.0611	32
287.0066	36
287.0523	999
