Mass spectrum: (-)-trans-Caryophyllene; LC-ESI-QTOF; MS2; CE: 15.00;  [M-H]-
Name: (-)-trans-Caryophyllene
Class: NA
Formula: C15H24
Exact mass: 204.1878
SMILES: CC1=CCCC(=C)C2CC(C2CC1)(C)C
InChI: InChI=1S/C15H24/c1-11-6-5-7-12(2)13-10-15(3,4)14(13)9-8-11/h6,13-14H,2,5,7-10H2,1,3-4H3
Instrument: Bruker MicrOTOF-Q
Instrument type: LC-ESI-QTOF
Ms type: MS2
Ion mode: POSITIVE
Ionization: ESI
Collision energy: 15.00
Column name: Acquity CSHC18
Retention time: NA
Base peak: 203.1794
Precursor m/z: 203.1794
Precursor type: [M-H]-
m/z	relative intensity
119.0844	22
121.1015	25
123.1165	30
133.1019	36
135.1153	38
147.1181	102
148.1192	121
161.1341	121
162.139	133
175.1491	251
203.1822	402
204.1855	999
