Mass spectrum: (-)-Borneol; APCI-ITFT; MS2; CE: 35 CID;  [M+H-H2O]+
Name: (-)-Borneol
Class: NA
Formula: C10H18O
Exact mass: 154.13577
SMILES: CC1(C2CCC1(C(C2)O)C)C
InChI: InChI=1S/C10H18O/c1-9(2)7-4-5-10(9,3)8(11)6-7/h7-8,11H,4-6H2,1-3H3
Instrument: Orbitrap Elite
Instrument type: APCI-ITFT
Ms type: MS2
Ion mode: POSITIVE
Ionization: APCI
Collision energy: 35 CID
Column name: Acquity CSHC18
Retention time: 0.098 min
Base peak: 137.13210
Precursor m/z: 137.13210
Precursor type: [M+H-H2O]+
Precursor intensity: 114370400
m/z	relative intensity
79.0537	29
80.323	1
81.0695	533
91.0545	1
93.0694	8
95.0853	624
105.0446	3
107.0851	2
108.0931	2
109.1008	47
122.1087	1
135.1178	2
136.1202	1
137.1323	999
