Mass spectrum: trans-Cinnamic acid; LC-ESI-ITFT; MS2; CE: 20;  [M+H]+
Name: trans-Cinnamic acid
Class: Phenylpropanoids and polyketides; Cinnamic acids and derivatives; Cinnamic acids
Formula: C9H8O2
Exact mass: 148.05243
SMILES: OC(=O)\C=C\C1=CC=CC=C1
InChI: InChI=1S/C9H8O2/c10-9(11)7-6-8-4-2-1-3-5-8/h1-7H,(H,10,11)/b7-6+
Instrument: Thermo Scientific Q-Exactive Focus
Instrument type: LC-ESI-ITFT
Ms type: MS2
Ion mode: POSITIVE
Ionization: ESI
Collision energy: 20
Column name: Acquity CSHC18
Retention time: 0.631 min
Base peak: 149.05971
Precursor m/z: 149.05971
Precursor type: [M+H]+
m/z	relative intensity
53.0392	26
65.0391	48
79.0547	21
95.0495	56
103.0546	999
105.045	18
121.0286	28
121.0399	15
131.0493	225
149.0234	11
