Mass spectrum: TauroChenoDeoxyCholic Acid; LC-ESI-QTOF; MS2; CE: 100;  [M+Na]+
Name: TauroChenoDeoxyCholic Acid
Class: NA
Formula: C26H45NO6S
Exact mass: 499.29676
SMILES: CC(CCC(=O)NCCS(=O)(=O)O)C1CCC2C1(CCC3C2C(CC4C3(CCC(C4)O)C)O)C
InChI: InChI=1S/C26H45NO6S/c1-16(4-7-23(30)27-12-13-34(31,32)33)19-5-6-20-24-21(9-11-26(19,20)3)25(2)10-8-18(28)14-17(25)15-22(24)29/h16-22,24,28-29H,4-15H2,1-3H3,(H,27,30)(H,31,32,33)
Instrument: impact II
Instrument type: LC-ESI-QTOF
Ms type: MS2
Ion mode: POSITIVE
Ionization: ESI
Collision energy: 100
Column name: Acquity CSHC18
Retention time: 1.794 min
Base peak: 522.28570
Precursor m/z: 522.28570
Precursor type: [M+Na]+
m/z	relative intensity
55.0553	358
57.0704	539
60.0822	298
67.0553	563
74.0447	102
79.0537	265
81.0706	521
83.7368	118
91.0551	895
92.0569	149
93.0705	425
94.074	235
95.049	187
95.0865	284
98.0615	124
103.0534	249
105.0698	999
106.072	142
107.0865	272
117.0707	316
119.0857	744
120.0892	227
121.1016	174
128.0617	472
129.0701	379
130.0785	187
131.0853	368
133.0131	118
141.0708	118
142.0789	155
143.0855	159
144.0898	196
145.1006	336
146.1053	150
147.0696	124
148.0043	465
155.0865	203
156.0936	359
157.1001	238
159.1173	135
161.1334	145
169.1033	241
170.1083	141
171.1176	185
182.1067	199
183.1148	164
185.1315	150
195.1164	141
197.1339	206
199.1486	376
211.1489	288
225.154	106
239.1785	330
253.1977	113
314.9283	124
