Mass spectrum: L-Alanine; LC-ESI-ITFT; MS2; CE: 60;  [M+H]+
Name: L-Alanine
Class: Organic acids and derivatives; Carboxylic acids and derivatives; Amino acids, peptides, and analogues
Formula: C3H7NO2
Exact mass: 89.04768
SMILES: C[C@H](N)C(O)=O
InChI: InChI=1S/C3H7NO2/c1-2(4)3(5)6/h2H,4H2,1H3,(H,5,6)/t2-/m0/s1
Instrument: Thermo Scientific Q-Exactive Focus
Instrument type: LC-ESI-ITFT
Ms type: MS2
Ion mode: POSITIVE
Ionization: ESI
Collision energy: 60
Column name: Acquity CSHC18
Retention time: NA
Base peak: 90.05496
Precursor m/z: 90.05496
Precursor type: [M+H]+
m/z	relative intensity
54.8803	999
59.3869	827
68.9159	830
74.826	858
76.2115	922
82.645	866
83.1594	900
93.9106	856
97.6605	838
108.4035	839
