Mass spectrum: DEOXYURIDINE-MONOPHOSPHATE; LC-ESI-QFT; MS2; CE: 30eV;  [M+H]+
Name: DEOXYURIDINE-MONOPHOSPHATE
Class: NA
Formula: C9H13N2O8P
Exact mass: 308.04095
SMILES: C1C(C(OC1N2C=CC(=O)NC2=O)COP(=O)(O)O)O
InChI: InChI=1S/C9H13N2O8P/c12-5-3-8(11-2-1-7(13)10-9(11)14)19-6(5)4-18-20(15,16)17/h1-2,5-6,8,12H,3-4H2,(H,10,13,14)(H2,15,16,17)
Instrument: Q-Exactive Orbitrap, Thermo Scientfic; Ultimate 3000 HPLC, Thermo Scientfic
Instrument type: LC-ESI-QFT
Ms type: MS2
Ion mode: POSITIVE
Ionization: ESI
Collision energy: 30eV
Column name: Acquity CSHC18
Retention time: 0.710 min
Base peak: 309.0482
Precursor m/z: 309.0482
Precursor type: [M+H]+
Precursor intensity: 167
m/z	relative intensity
53.0394	10
54.6893	7
64.1576	8
68.0306	7
71.3939	8
74.0135	7
81.0343	999
82.0377	21
82.8993	7
98.126	9
98.6773	7
105.8527	8
106.3619	10
106.6337	8
116.0047	8
192.3789	8
232.8683	10
253.2217	9
257.8776	12
290.889	10
308.901	132
309.9008	18
315.3024	9
326.9119	58
