Mass spectrum: L-(+)-Aspartic acid; LC-ESI-QTOF; MS2; CE: 15.00;  [M+H]+
Name: L-(+)-Aspartic acid
Class: NA
Formula: C4H7NO4
Exact mass: 133.0375
SMILES: C(C(C(=O)O)N)C(=O)O
InChI: InChI=1S/C4H7NO4/c5-2(4(8)9)1-3(6)7/h2H,1,5H2,(H,6,7)(H,8,9)
Instrument: Bruker MicrOTOF-Q
Instrument type: LC-ESI-QTOF
Ms type: MS2
Ion mode: POSITIVE
Ionization: ESI
Collision energy: 15.00
Column name: Acquity CSHC18
Retention time: NA
Base peak: 134.0448
Precursor m/z: 134.0448
Precursor type: [M+H]+
m/z	relative intensity
116.0297	587
134.0445	881
135.0497	999
815.4105	587
