Mass spectrum: (S)-Stylopine; ESI-QTOF; MS2; CE: 1, 35, 60;  [M+H]+
Name: (S)-Stylopine
Class: Benzylisoquinoline (subclass:Benzophenanthridine) alkaloid
Formula: C19H17NO4
Exact mass: 323.1158
SMILES: C1CN2CC3=C(CC2C4=CC5=C(C=C41)OCO5)C=CC6=C3OCO6
InChI: InChI=1S/C19H17NO4/c1-2-16-19(24-10-21-16)14-8-20-4-3-12-6-17-18(23-9-22-17)7-13(12)15(20)5-11(1)14/h1-2,6-7,15H,3-5,8-10H2
Instrument: AB Sciex TripleToF 5500
Instrument type: ESI-QTOF
Ms type: MS2
Ion mode: POSITIVE
Ionization: ESI
Collision energy: 1, 35, 60
Column name: Acquity CSHC18
Retention time: 6.779 min
Base peak: 324.1203
Precursor m/z: 324.1203
Precursor type: [M+H]+
Precursor intensity: 205787.9
m/z	relative intensity
65.0383	45
77.0311	32
77.0372	32
78.0392	6
79.0514	7
90.0446	8
91.0522	214
92.041	27
92.0532	28
102.0369	5
103.0562	36
104.0504	7
105.0551	17
118.0627	71
119.0465	117
120.0498	13
120.0792	12
121.062	11
131.0346	19
135.0435	15
146.0646	54
147.0645	10
149.0572	271
150.0603	35
151.0529	5
152.0574	12
159.0437	38
160.0369	22
160.0477	24
161.0494	143
162.0525	16
164.0661	7
165.0659	18
174.0546	98
175.0581	28
176.0701	999
177.07	162
178.0745	53
179.0782	17
188.0677	20
189.068	54
190.0671	28
190.0769	29
191.0786	27
207.0767	10
219.0733	17
220.0775	5
249.0946	16
277.0857	16
323.0957	36
324.1218	305
325.1239	135
325.6766	5
