Mass spectrum: 1,2-Diferuloylgentiobiose; LC-ESI-QTOF; MS2; CE: 20-40eV;  [M+NH4]+
Name: 1,2-Diferuloylgentiobiose
Class: Hydroxycinnamic acids and derivatives
Formula: C32H38O17
Exact mass: 694.2109
SMILES: COC=1C=C(C=CC1O)C(=C(C(=O)OC2(C(C(C(COC3(C(C(C(C(CO)(O3)[H])(O)[H])(O)[H])(O)[H])[H])(OC2(OC(C(=C(C=4C=CC(=C(C4)OC)O)[H])[H])=O)[H])[H])(O)[H])(O)[H])[H])[H])[H]
InChI: InChI=1S/C32H38O17/c1-43-19-11-15(3-7-17(19)34)5-9-23(36)48-30-28(41)26(39)22(14-45-31-29(42)27(40)25(38)21(13-33)46-31)47-32(30)49-24(37)10-6-16-4-8-18(35)20(12-16)44-2/h3-12,21-22,25-35,38-42H,13-14H2,1-2H3
Instrument: Impact II, Bruker; Dionex 3000, Thermo Scientific
Instrument type: LC-ESI-QTOF
Ms type: MS2
Ion mode: POSITIVE
Ionization: ESI
Collision energy: 20-40eV
Column name: Acquity CSHC18
Retention time: 6.575 min
Base peak: 712.2448
Precursor m/z: 712.2448
Precursor type: [M+NH4]+
Precursor intensity: 5889.5
m/z	relative intensity
145.0271	19
177.0544	19
178.0573	21
195.0648	28
207.0662	28
303.0873	28
321.0956	49
322.1011	54
339.1076	60
340.1108	69
341.1154	71
489.1347	98
501.1576	326
502.1668	999
