Mass spectrum: Trimethylamine N-oxide; LC-ESI-ITFT; MS2; CE: 60;  [M+H]+
Name: Trimethylamine N-oxide
Class: Organic nitrogen compounds; Organonitrogen compounds; Aminoxides
Formula: C3H9NO
Exact mass: 75.06841
SMILES: C[N+](C)(C)[O-]
InChI: InChI=1S/C3H9NO/c1-4(2,3)5/h1-3H3
Instrument: Thermo Scientific Q-Exactive Focus
Instrument type: LC-ESI-ITFT
Ms type: MS2
Ion mode: POSITIVE
Ionization: ESI
Collision energy: 60
Column name: Acquity CSHC18
Retention time: 1.750 min
Base peak: 76.07569
Precursor m/z: 76.07569
Precursor type: [M+H]+
m/z	relative intensity
59.465	898
61.8431	876
62.4427	878
64.3865	877
66.1043	824
78.7944	834
79.3568	875
87.2183	970
87.8015	949
90.6712	999
