Mass spectrum: GLUTAMINE; LC-ESI-QTOF; MS2; CE: 40;  [M-H]-
Name: GLUTAMINE
Class: NA
Formula: C5H10N2O3
Exact mass: 146.06914
SMILES: N[C@@H](CCC(N)=O)C(O)=O
InChI: InChI=1S/C5H10N2O3/c6-3(5(9)10)1-2-4(7)8/h3H,1-2,6H2,(H2,7,8)(H,9,10)/t3-/m0/s1
Instrument: Agilent 6530Â Q-TOF LC/MS
Instrument type: LC-ESI-QTOF
Ms type: MS2
Ion mode: NEGATIVE
Ionization: ESI
Collision energy: 40
Column name: NA
Retention time: 0.200 min
Base peak: 145.06197
Precursor m/z: 145.06197
Precursor type: [M-H]-
Precursor intensity: 199
m/z	relative intensity
41.0055	114
42.0105	228
58.032	999
