Mass spectrum: Oleamide; ESI-TOF; MS2; CE: 0.6458333;  [M+H]+
Name: Oleamide
Class: NA
Formula: C18H35NO
Exact mass: 281.27186
SMILES: O=C(N)CCCCCCC\C=C/CCCCCCCC
InChI: InChI=1S/C18H35NO/c1-2-3-4-5-6-7-8-9-10-11-12-13-14-15-16-17-18(19)20/h9-10H,2-8,11-17H2,1H3,(H2,19,20)/b10-9-
Instrument: waters xevo g2 TOF
Instrument type: ESI-TOF
Ms type: MS2
Ion mode: POSITIVE
Ionization: ESI
Collision energy: 0.6458333
Column name: Acquity CSHC18
Retention time: 6.848 min
Base peak: 282.27986
Precursor m/z: 282.27986
Precursor type: [M+H]+
m/z	relative intensity
55.0558	14
57.0717	10
67.056	37
69.0714	174
70.073	9
71.0868	38
72.083	19
79.0554	45
81.0713	168
82.0746	10
83.0865	274
84.0888	23
85.1019	45
86.0619	46
91.0564	9
93.071	127
94.0743	6
95.0868	219
96.0899	18
97.1022	316
98.1058	25
99.081	9
100.0767	103
101.0796	6
107.0864	134
109.102	146
110.1055	14
111.1183	141
112.1206	12
114.0922	117
115.0966	8
121.102	186
122.1064	13
123.1179	71
124.1204	8
125.0975	74
126.1004	7
127.114	8
128.1083	67
135.118	209
136.1215	22
137.1335	36
139.1132	52
141.0586	7
142.124	44
149.1337	150
150.1365	13
151.1489	34
153.1285	34
155.074	6
156.1394	28
160.618	256
161.1199	51
163.1493	90
164.1536	12
165.1651	29
167.144	21
169.9302	29
177.1644	57
178.1687	7
179.1793	7
181.1452	15
184.0991	17
191.1804	43
195.1751	14
198.1861	17
205.1959	11
209.1914	12
212.2017	14
220.0999	7
223.2069	7
226.2172	16
240.2705	30
247.2434	271
248.2467	50
249.249	5
264.2685	8
265.2538	262
266.2571	49
267.2617	5
282.2802	999
283.2836	215
