Mass spectrum: Neoglucobrassicin; LC-ESI-QTOF; MS2; CE: 35.00;  [M-C6H10O8S+H]+
Name: Neoglucobrassicin
Class: NA
Formula: C17H22N2O10S2
Exact mass: 478.0716
SMILES: CON1C=C(C2=CC=CC=C21)CC(=NOS(=O)(=O)O)SC3C(C(C(C(O3)CO)O)O)O
InChI: InChI=1S/C17H22N2O10S2/c1-27-19-7-9(10-4-2-3-5-11(10)19)6-13(18-29-31(24,25)26)30-17-16(23)15(22)14(21)12(8-20)28-17/h2-5,7,12,14-17,20-23H,6,8H2,1H3,(H,24,25,26)
Instrument: Bruker MicrOTOF-Q
Instrument type: LC-ESI-QTOF
Ms type: MS2
Ion mode: POSITIVE
Ionization: ESI
Collision energy: 35.00
Column name: Acquity CSHC18
Retention time: NA
Base peak: 237.0697
Precursor m/z: 237.0697
Precursor type: [M-C6H10O8S+H]+
m/z	relative intensity
116.0435	29
117.0573	116
118.0622	73
128.0492	188
129.0529	171
130.0623	999
131.0645	77
132.0413	91
142.0506	24
144.0452	25
145.0554	70
146.0561	43
148.019	44
148.0652	35
149.0265	33
155.0566	108
156.0687	115
157.0689	54
160.0229	66
161.0262	29
162.0407	43
172.0212	28
