Mass spectrum: KYNURENATE; LC-ESI-QTOF; MS2; CE: 40;  [M-H]-
Name: KYNURENATE
Class: NA
Formula: C10H7NO3
Exact mass: 189.04259
SMILES: OC(=O)C1=CC(=O)C2=CC=CC=C2N1
InChI: InChI=1S/C10H7NO3/c12-9-5-8(10(13)14)11-7-4-2-1-3-6(7)9/h1-5H,(H,11,12)(H,13,14)
Instrument: Agilent 6530Â Q-TOF LC/MS
Instrument type: LC-ESI-QTOF
Ms type: MS2
Ion mode: NEGATIVE
Ionization: ESI
Collision energy: 40
Column name: NA
Retention time: 0.200 min
Base peak: 188.03271
Precursor m/z: 188.03271
Precursor type: [M-H]-
Precursor intensity: 162
m/z	relative intensity
40.0268	131
41.0032	152
66.0153	215
115.04	375
116.054	744
144.0589	999
