Mass spectrum: THIOPURINE S-METHYLETHER; LC-ESI-QTOF; MS2; CE: 20;  [M-H]-
Name: THIOPURINE S-METHYLETHER
Class: NA
Formula: C6H6N4S
Exact mass: 166.03132
SMILES: CSC1=NC=NC2=C1NC=N2
InChI: InChI=1S/C6H6N4S/c1-11-6-4-5(8-2-7-4)9-3-10-6/h2-3H,1H3,(H,7,8,9,10)
Instrument: Agilent 6530Â Q-TOF LC/MS
Instrument type: LC-ESI-QTOF
Ms type: MS2
Ion mode: NEGATIVE
Ionization: ESI
Collision energy: 20
Column name: NA
Retention time: 0.200 min
Base peak: 165.02278
Precursor m/z: 165.02278
Precursor type: [M-H]-
Precursor intensity: 127
m/z	relative intensity
57.9768	125
64.012	173
65.0161	177
66.0094	185
81.978	194
90.0164	214
91.0202	242
117.0343	253
119.0404	265
122.9925	337
150.0277	474
165.0301	999
