Mass spectrum: Pyruvic acid; LC-ESI-ITFT; MS2; CE: 40;  [M-H]-
Name: Pyruvic acid
Class: Organic acids and derivatives; Keto acids and derivatives; Alpha-keto acids and derivatives
Formula: C3H4O3
Exact mass: 88.01604
SMILES: CC(=O)C(O)=O
InChI: InChI=1S/C3H4O3/c1-2(4)3(5)6/h1H3,(H,5,6)
Instrument: Thermo Scientific Q-Exactive Focus
Instrument type: LC-ESI-ITFT
Ms type: MS2
Ion mode: NEGATIVE
Ionization: ESI
Collision energy: 40
Column name: Acquity CSHC18
Retention time: NA
Base peak: 87.00877
Precursor m/z: 87.00877
Precursor type: [M-H]-
m/z	relative intensity
55.807	835
59.8455	844
66.1462	818
70.5718	867
79.3192	847
80.8461	851
81.9404	816
82.797	999
85.4814	927
90.4955	928
