Mass spectrum: S-Methylglutathione; LC-ESI-QTOF; MS2; CE: -10, -35, -60V;  [M-H]-
Name: S-Methylglutathione
Class: NA
Formula: C11H19N3O6S
Exact mass: 321.0995
SMILES: CSCC(C(=O)NCC(=O)O)NC(=O)CCC(C(=O)O)N
InChI: InChI=1S/C11H19N3O6S/c1-21-5-7(10(18)13-4-9(16)17)14-8(15)3-2-6(12)11(19)20/h6-7H,2-5,12H2,1H3,(H,13,18)(H,14,15)(H,16,17)(H,19,20)
Instrument: TripleToF 5600; Sciex
Instrument type: LC-ESI-QTOF
Ms type: MS2
Ion mode: NEGATIVE
Ionization: ESI
Collision energy: -10, -35, -60V
Column name: Acquity CSHC18
Retention time: 4.961 min
Base peak: 320.0949
Precursor m/z: 320.0949
Precursor type: [M-H]-
Precursor intensity: 156661.9
m/z	relative intensity
74.023	28
87.0398	10
109.0443	8
128.0375	71
135.0291	2
140.1102	4
143.0478	175
144.0491	12
146.0466	21
153.067	17
166.0998	11
167.0837	18
171.0389	10
179.0467	65
181.0697	8
185.0557	11
191.0506	23
192.0841	8
197.0618	20
210.0872	80
211.093	9
228.1006	6
253.0411	2
254.0818	158
255.0818	21
272.094	172
273.1032	21
302.0815	74
319.0584	11
320.0955	999
