Mass spectrum: Methylcysteine; ESI-TOF; MS2; CE: 0.6458333;  [M+H]+
Name: Methylcysteine
Class: NA
Formula: C4H9NO2S
Exact mass: 135.03540
SMILES: CSCC(N)C(O)=O
InChI: InChI=1S/C4H9NO2S/c1-8-2-3(5)4(6)7/h3H,2,5H2,1H3,(H,6,7)
Instrument: waters xevo g2 TOF
Instrument type: ESI-TOF
Ms type: MS2
Ion mode: POSITIVE
Ionization: ESI
Collision energy: 0.6458333
Column name: Acquity CSHC18
Retention time: 0.566 min
Base peak: 136.04340
Precursor m/z: 136.04340
Precursor type: [M+H]+
m/z	relative intensity
73.029	723
74.0326	3
74.9908	359
77.0063	999
78.009	3
99.9702	3
101.0063	3
102.1281	3
111.9701	25
118.9409	3
119.0164	577
120.0193	3
121.0127	3
122.0163	3
129.0519	3
129.8806	27
130.0084	3
130.1575	3
130.9675	3
133.0305	3
136.0431	3
139.9778	16
141.9592	3
143.96	3
144.965	188
149.9614	3
158.0243	3
161.9709	3
172.8615	206
178.1217	3
180.0068	227
189.9639	25
201.0085	3
217.1052	3
235.9626	3
241.0321	3
261.9489	20
280.0544	3
298.9729	35
302.1941	3
309.0241	3
318.7899	18
323.9901	3
326.9953	3
346.98	198
348.9797	97
378.9126	21
393.9829	3
408.7857	3
416.967	54
481.0051	3
513.9534	139
514.9503	24
538.946	42
583.9219	21
638.0249	3
647.9826	3
670.9731	3
782.0077	3
