Mass spectrum: (+)-lariciresinol; LC-ESI-QTOF; MS2; CE: 35;  [M-H]-
Name: (+)-lariciresinol
Class: NA
Formula: C20H24O6
Exact mass: 360.1573
SMILES: COC1=C(C=CC(=C1)CC2COC(C2CO)C3=CC(=C(C=C3)O)OC)O
InChI: InChI=1S/C20H24O6/c1-24-18-8-12(3-5-16(18)22)7-14-11-26-20(15(14)10-21)13-4-6-17(23)19(9-13)25-2/h3-6,8-9,14-15,20-23H,7,10-11H2,1-2H3
Instrument: Bruker MicrOTOF-Q
Instrument type: LC-ESI-QTOF
Ms type: MS2
Ion mode: NEGATIVE
Ionization: ESI
Collision energy: 35
Column name: Acquity CSHC18
Retention time: NA
Base peak: 359.1490
Precursor m/z: 359.1490
Precursor type: [M-H]-
m/z	relative intensity
121.0275	621
122.0362	259
158.0441	360
159.0484	743
160.0543	916
161.0235	264
161.0615	999
