Mass spectrum: vanillin; LC-ESI-QFT; MS2; CE: NCE_15_30_52;  [M-H]-
Name: vanillin
Class: NA
Formula: C8H8O3
Exact mass: 152.0473
SMILES: COC1=C(C=CC(=C1)C=O)O
InChI: InChI=1S/C8H8O3/c1-11-8-4-6(5-9)2-3-7(8)10/h2-5,10H,1H3
Instrument: Thermo_Qexactive_Plus
Instrument type: LC-ESI-QFT
Ms type: MS2
Ion mode: NEGATIVE
Ionization: ESI
Collision energy: NCE_15_30_52
Column name: Acquity CSHC18
Retention time: 3.708 min
Base peak: 151.0391
Precursor m/z: 151.0391
Precursor type: [M-H]-
Precursor intensity: 346591400
m/z	relative intensity
58.0592	16
59.2929	17
68.2534	17
70.6963	18
72.3471	18
92.3438	18
105.9792	19
108.02	20
123.2305	21
136.0157	37
137.0187	96
142.8073	282
151.0405	999
