Mass spectrum: L-Lysine; LC-ESI-ITFT; MS2; CE: 10;  [M+H]+
Name: L-Lysine
Class: Organic acids and derivatives; Carboxylic acids and derivatives; Amino acids, peptides, and analogues
Formula: C6H14N2O2
Exact mass: 146.10553
SMILES: NCCCC[C@H](N)C(O)=O
InChI: InChI=1S/C6H14N2O2/c7-4-2-1-3-5(8)6(9)10/h5H,1-4,7-8H2,(H,9,10)/t5-/m0/s1
Instrument: Thermo Scientific Q-Exactive Focus
Instrument type: LC-ESI-ITFT
Ms type: MS2
Ion mode: POSITIVE
Ionization: ESI
Collision energy: 10
Column name: Acquity CSHC18
Retention time: 0.351 min
Base peak: 147.11279
Precursor m/z: 147.11279
Precursor type: [M+H]+
m/z	relative intensity
56.05	8
64.9277	4
67.0548	2
84.0812	999
123.9645	31
129.1023	17
130.0864	533
146.9803	4
147.0917	2
147.1128	71
