Mass spectrum: Indole-3-acetyl-L-aspartic acid; LC-ESI-QTOF; MS2; CE: 50eV;  [M+H]+
Name: Indole-3-acetyl-L-aspartic acid
Class: indole
Formula: C14H14N2O5
Exact mass: 290.0903
SMILES: C1=CC=C2C(=C1)C(=CN2)CC(=O)NC(CC(=O)O)C(=O)O
InChI: InChI=1S/C14H14N2O5/c17-12(16-11(14(20)21)6-13(18)19)5-8-7-15-10-4-2-1-3-9(8)10/h1-4,7,11,15H,5-6H2,(H,16,17)(H,18,19)(H,20,21)
Instrument: TIMS-TOF Pro, Bruker Daltonik; Elute UHPLC System, Bruker Daltonik
Instrument type: LC-ESI-QTOF
Ms type: MS2
Ion mode: POSITIVE
Ionization: ESI
Collision energy: 50eV
Column name: Acquity CSHC18
Retention time: 5.237 min
Base peak: 291.0978
Precursor m/z: 291.0978
Precursor type: [M+H]+
Precursor intensity: 166423.1
m/z	relative intensity
47.8017	1
57.2559	1
58.6424	1
70.0261	1
74.0235	2
77.039	3
88.0398	5
90.5933	1
103.053	7
104.0492	1
116.0348	7
128.0517	4
130.065	999
130.3891	8
131.0676	36
134.0451	34
158.058	2
176.0691	2
199.0878	2
273.0859	1
