Mass spectrum: Naringenin; ESI-TOF; MS2; CE: 0.6458333;  [M+H]+
Name: Naringenin
Class: NA
Formula: C15H12O5
Exact mass: 272.06847
SMILES: OC1=CC=C(C=C1)C1CC(=O)C2=C(O)C=C(O)C=C2O1
InChI: InChI=1S/C15H12O5/c16-9-3-1-8(2-4-9)13-7-12(19)15-11(18)5-10(17)6-14(15)20-13/h1-6,13,16-18H,7H2
Instrument: waters xevo g2 TOF
Instrument type: ESI-TOF
Ms type: MS2
Ion mode: POSITIVE
Ionization: ESI
Collision energy: 0.6458333
Column name: Acquity CSHC18
Retention time: 2.859 min
Base peak: 273.07647
Precursor m/z: 273.07647
Precursor type: [M+H]+
m/z	relative intensity
67.019	21
68.9983	10
83.0144	2
91.0551	81
92.059	6
95.0503	26
97.0294	13
107.0502	54
108.0536	2
111.0106	19
119.0498	365
120.053	19
121.0308	18
123.0445	115
124.0485	8
125.0235	2
127.0775	1
147.0754	936
148.0483	169
151.0398	30
153.1254	999
154.0224	287
157.0654	3
159.0119	3
161.0605	6
163.0761	5
171.0327	3
179.0344	35
180.0357	1
185.0526	2
189.0214	27
190.0589	4
199.0973	1
208.9545	3
231.0662	24
255.0607	30
266.1536	2
267.0331	2
269.0132	2
273.4219	89
275.1467	8
279.0861	2
287.0552	5
295.0577	5
301.0014	2
302.9972	2
311.0237	62
312.0266	7
317.0398	1
324.9832	2
325.989	11
326.9948	17
328.0003	4
329.0349	2
332.2107	1
358.0148	1
370.0216	1
389.1819	8
411.1629	2
458.1969	2
463.0348	3
473.0313	6
475.0316	4
476.0384	3
477.027	4
479.1186	3
488.0207	3
489.0197	1
539.1022	15
540.1079	4
541.0815	8
542.0832	3
567.116	9
568.1193	4
569.1037	63
570.1073	9
571.11	2
583.0912	177
584.095	61
585.0971	6
586.0968	1
587.0863	1
588.089	1
593.0587	1
594.0618	5
595.0632	4
596.0606	12
597.0648	8
598.0566	167
599.0599	163
600.0624	23
601.0664	10
602.0674	5
603.0622	3
604.0643	2
605.0608	1
609.0652	1
610.0567	13
611.0602	7
612.0386	2
620.0392	4
621.045	1
863.1512	3
864.1475	1
892.1041	13
893.1057	4
894.1106	1
911.0781	1
927.0429	1
928.0529	1
929.052	1
1180.1372	6
1181.1374	3
1182.1381	2
1196.1106	4
1197.1066	2
1198.1107	7
1199.1122	4
