Mass spectrum: Allantoin; LC-ESI-ITFT; MS2; CE: 40;  [M-H]-
Name: Allantoin
Class: Organoheterocyclic compounds; Azoles; Imidazoles
Formula: C4H6N4O3
Exact mass: 158.04399
SMILES: NC(=O)NC1NC(=O)NC1=O
InChI: InChI=1S/C4H6N4O3/c5-3(10)6-1-2(9)8-4(11)7-1/h1H,(H3,5,6,10)(H2,7,8,9,11)
Instrument: Thermo Scientific Q-Exactive Focus
Instrument type: LC-ESI-ITFT
Ms type: MS2
Ion mode: NEGATIVE
Ionization: ESI
Collision energy: 40
Column name: Acquity CSHC18
Retention time: 1.475 min
Base peak: 157.03671
Precursor m/z: 157.03671
Precursor type: [M-H]-
m/z	relative intensity
59.0239	999
71.0238	542
92.5152	705
93.5725	361
97.0031	699
97.5747	331
138.1057	324
138.484	330
146.4604	369
153.7834	371
