Mass spectrum: Succinic acid; LC-ESI-QTOF; MS2; CE: 10;  [M-H]-
Name: Succinic acid
Class: NA
Formula: C4H6O4
Exact mass: 118.02661
SMILES: C(CC(=O)O)C(=O)O
InChI: InChI=1S/C4H6O4/c5-3(6)1-2-4(7)8/h1-2H2,(H,5,6)(H,7,8)
Instrument: impact II
Instrument type: LC-ESI-QTOF
Ms type: MS2
Ion mode: NEGATIVE
Ionization: ESI
Collision energy: 10
Column name: Acquity CSHC18
Retention time: 1.908 min
Base peak: 117.01920
Precursor m/z: 117.01920
Precursor type: [M-H]-
m/z	relative intensity
73.0295	999
99.009	255
117.0191	460
