Mass spectrum: 5-Methoxytryptamine; LC-ESI-ITFT; MS2; CE: 40;  [M+H]+
Name: 5-Methoxytryptamine
Class: Organoheterocyclic compounds; Indoles and derivatives; Tryptamines and derivatives
Formula: C11H14N2O
Exact mass: 190.11061
SMILES: COC1=CC2=C(NC=C2CCN)C=C1
InChI: InChI=1S/C11H14N2O/c1-14-9-2-3-11-10(6-9)8(4-5-12)7-13-11/h2-3,6-7,13H,4-5,12H2,1H3
Instrument: Thermo Scientific Q-Exactive Focus
Instrument type: LC-ESI-ITFT
Ms type: MS2
Ion mode: POSITIVE
Ionization: ESI
Collision energy: 40
Column name: Acquity CSHC18
Retention time: 1.463 min
Base peak: 191.11789
Precursor m/z: 191.11789
Precursor type: [M+H]+
m/z	relative intensity
78.0469	32
103.0546	58
115.0545	110
117.0576	40
130.0653	999
131.0731	384
142.0652	39
143.073	134
158.0602	30
159.0679	80
