Mass spectrum: Creatinine; LC-ESI-ITFT; MS2; CE: 30;  [M-H]-
Name: Creatinine
Class: Organic acids and derivatives; Carboxylic acids and derivatives; Amino acids, peptides, and analogues
Formula: C4H7N3O
Exact mass: 113.05891
SMILES: CN1CC(=O)NC1=N
InChI: InChI=1S/C4H7N3O/c1-7-2-3(8)6-4(7)5/h2H2,1H3,(H2,5,6,8)
Instrument: Thermo Scientific Q-Exactive Focus
Instrument type: LC-ESI-ITFT
Ms type: MS2
Ion mode: NEGATIVE
Ionization: ESI
Collision energy: 30
Column name: Acquity CSHC18
Retention time: 0.925 min
Base peak: 112.05164
Precursor m/z: 112.05164
Precursor type: [M-H]-
m/z	relative intensity
68.9946	999
78.8441	129
78.8499	113
83.0644	124
92.7656	116
112.0505	209
115.9314	127
118.1295	117
124.045	125
128.2368	127
