Mass spectrum: 3-Hydroxybutyric acid; LC-ESI-ITFT; MS2; CE: 60;  [M-H]-
Name: 3-Hydroxybutyric acid
Class: Organic acids and derivatives; Hydroxy acids and derivatives; Beta hydroxy acids and derivatives
Formula: C4H8O3
Exact mass: 104.04734
SMILES: CC(O)CC(O)=O
InChI: InChI=1S/C4H8O3/c1-3(5)2-4(6)7/h3,5H,2H2,1H3,(H,6,7)
Instrument: Thermo Scientific Q-Exactive Focus
Instrument type: LC-ESI-ITFT
Ms type: MS2
Ion mode: NEGATIVE
Ionization: ESI
Collision energy: 60
Column name: Acquity CSHC18
Retention time: 1.747 min
Base peak: 103.04007
Precursor m/z: 103.04007
Precursor type: [M-H]-
m/z	relative intensity
57.3367	953
59.4556	968
60.5348	922
62.7108	912
73.4048	995
75.6518	986
80.6147	999
82.1521	911
88.8486	991
112.3151	940
