Mass spectrum: nicotinic acid; LC-ESI-QTOF; MS2; CE: -10, -35, -60V;  [M-H]-
Name: nicotinic acid
Class: NA
Formula: C6H5NO2
Exact mass: 123.0320
SMILES: C1=CC(=CN=C1)C(=O)O
InChI: InChI=1S/C6H5NO2/c8-6(9)5-2-1-3-7-4-5/h1-4H,(H,8,9)
Instrument: TripleToF 5600; Sciex
Instrument type: LC-ESI-QTOF
Ms type: MS2
Ion mode: NEGATIVE
Ionization: ESI
Collision energy: -10, -35, -60V
Column name: Acquity CSHC18
Retention time: 6.634 min
Base peak: 122.0265
Precursor m/z: 122.0265
Precursor type: [M-H]-
Precursor intensity: 230394.7
m/z	relative intensity
77.7885	21
78.034	999
79.0386	197
94.0293	18
121.6425	24
122.0258	589
