Mass spectrum: Phosphocreatine; LC-ESI-QTOF; MS2; CE: 10;  [M-H]-
Name: Phosphocreatine
Class: NA
Formula: C4H10N3O5P
Exact mass: 211.03581
SMILES: CN(CC(=O)O)C(=NP(=O)(O)O)N
InChI: InChI=1S/C4H10N3O5P/c1-7(2-3(8)9)4(5)6-13(10,11)12/h2H2,1H3,(H,8,9)(H4,5,6,10,11,12)
Instrument: impact II
Instrument type: LC-ESI-QTOF
Ms type: MS2
Ion mode: NEGATIVE
Ionization: ESI
Collision energy: 10
Column name: Acquity CSHC18
Retention time: 1.522 min
Base peak: 210.02820
Precursor m/z: 210.02820
Precursor type: [M-H]-
m/z	relative intensity
112.9864	201
116.8971	424
166.8934	137
210.8838	999
