Mass spectrum: L-kynurenine; LC-ESI-ITFT; MS2; CE: 0.3;  [M+H]+
Name: L-kynurenine
Class: tryptophan metabolite
Formula: C10H12N2O3
Exact mass: 208.0848
SMILES: C1=CC=C(C(=C1)C(=O)CC(C(=O)O)N)N
InChI: InChI=1S/C10H12N2O3/c11-7-4-2-1-3-6(7)9(13)5-8(12)10(14)15/h1-4,8H,5,11-12H2,(H,14,15)
Instrument: LTQ-Orbitrap XL hybrid mass spectrometer (Thermo Scientific)
Instrument type: LC-ESI-ITFT
Ms type: MS2
Ion mode: POSITIVE
Ionization: ESI
Collision energy: 0.3
Column name: Acquity CSHC18
Retention time: 0.886 min
Base peak: 209.0928
Precursor m/z: 209.0928
Precursor type: [M+H]+
Precursor intensity: 41595970
m/z	relative intensity
59.7485	2
61.6418	2
63.0314	1
67.9755	2
70.2969	2
70.8678	2
71.6426	2
74.6338	1
79.0339	1
81.8176	1
94.0652	77
96.5984	1
98.2469	2
99.0077	2
103.1655	3
120.0445	6
136.076	18
146.0605	68
150.0555	45
161.195	2
161.2023	1
163.0872	43
164.0712	36
174.0557	27
190.5313	2
190.9137	8
191.2965	5
191.4503	3
192.0451	4
192.0471	3
192.0491	5
192.051	4
192.0533	7
192.0547	4
192.0572	7
192.0594	7
192.0664	999
192.0721	6
192.0752	6
192.0774	7
192.0935	3
192.0949	1
192.4518	1
192.8409	3
193.2296	4
194.0109	1
196.088	6
209.093	33
