Mass spectrum: Vanillylmandelic acid; ESI-TOF; MS2; CE: 6.0000000;  [M+H]+
Name: Vanillylmandelic acid
Class: NA
Formula: C9H10O5
Exact mass: 198.05282
SMILES: COC1=C(O)C=CC(=C1)C(O)C(O)=O
InChI: InChI=1S/C9H10O5/c1-14-7-4-5(2-3-6(7)10)8(11)9(12)13/h2-4,8,10-11H,1H3,(H,12,13)
Instrument: waters xevo g2 TOF
Instrument type: ESI-TOF
Ms type: MS2
Ion mode: POSITIVE
Ionization: ESI
Collision energy: 6.0000000
Column name: Acquity CSHC18
Retention time: 1.132 min
Base peak: 199.06082
Precursor m/z: 199.06082
Precursor type: [M+H]+
m/z	relative intensity
93.0346	17
110.0368	2
111.0447	7
121.0294	3
125.0607	214
126.0641	16
134.0611	3
137.0419	3
139.0397	29
139.5219	10
140.0232	1
149.0243	499
150.0278	38
151.0335	11
153.0555	999
154.0591	48
155.0614	4
164.0473	3
175.0375	30
176.0418	2
181.0505	956
182.0538	94
183.0454	3
186.0246	2
187.0757	23
200.0244	20
200.5267	5
