Mass spectrum: Glycerophosphocholine; ESI-TOF; MS2; CE: 6.0000000;  [M+H]+
Name: Glycerophosphocholine
Class: NA
Formula: C8H20NO6P
Exact mass: 257.10282
SMILES: C[N+](C)(C)CCOP([O-])(=O)OCC(O)CO
InChI: InChI=1S/C8H20NO6P/c1-9(2,3)4-5-14-16(12,13)15-7-8(11)6-10/h8,10-11H,4-7H2,1-3H3
Instrument: waters xevo g2 TOF
Instrument type: ESI-TOF
Ms type: MS2
Ion mode: POSITIVE
Ionization: ESI
Collision energy: 6.0000000
Column name: Acquity CSHC18
Retention time: 0.548 min
Base peak: 258.11082
Precursor m/z: 258.11082
Precursor type: [M+H]+
m/z	relative intensity
104.1075	76
125.0003	4
141.0324	2
141.9591	39
148.5321	2
155.9928	2
156.5195	4
160.5279	1
163.9744	2
163.9769	2
169.046	3
182.9855	67
184.0739	93
184.9861	22
185.0762	2
204.1238	48
205.1272	6
211.036	3
221.0192	13
240.0997	8
258.1105	999
259.1138	97
260.1151	13
277.0851	4
280.0925	48
282.9924	4
296.0676	2
301.0019	3
312.0302	4
315.0169	2
357.0275	28
361.2097	2
515.2138	127
516.2159	25
517.2199	5
537.1956	80
538.197	5
568.1227	16
569.1296	7
772.3171	7
778.3257	2
794.2958	20
795.2997	4
825.226	13
826.2306	8
