Mass spectrum: 7-Methylsulfinylheptyl isothiocyanate; LC-ESI-QTOF; MS2; CE: 15.00;  [M+H]+
Name: 7-Methylsulfinylheptyl isothiocyanate
Class: NA
Formula: C9H17NOS2
Exact mass: 219.0752
SMILES: CS(=O)CCCCCCCN=C=S
InChI: InChI=1S/C9H17NOS2/c1-13(11)8-6-4-2-3-5-7-10-9-12/h2-8H2,1H3
Instrument: Bruker MicrOTOF-Q
Instrument type: LC-ESI-QTOF
Ms type: MS2
Ion mode: POSITIVE
Ionization: ESI
Collision energy: 15.00
Column name: Acquity CSHC18
Retention time: NA
Base peak: 220.0824
Precursor m/z: 220.0824
Precursor type: [M+H]+
m/z	relative intensity
108.08	140
114.04	148
122.1	157
123.1	806
156.08	999
220.08	345
