Mass spectrum: 2-Hydroxy-1-methoxy anthraquinone; LC-ESI-QFT; MS2; CE: 15,30,45 (NCE);  [M-H]-
Name: 2-Hydroxy-1-methoxy anthraquinone
Class: NA
Formula: C15H10O4
Exact mass: 254.0579
SMILES: COC1=C(O)C=CC2=C1C(=O)C1=CC=CC=C1C2=O
InChI: InChI=1S/C15H10O4/c1-19-15-11(16)7-6-10-12(15)14(18)9-5-3-2-4-8(9)13(10)17/h2-7,16H,1H3
Instrument: QE Focus, Thermo Scientfic; UPLC I-Class, Waters
Instrument type: LC-ESI-QFT
Ms type: MS2
Ion mode: NEGATIVE
Ionization: ESI
Collision energy: 15,30,45 (NCE)
Column name: Acquity CSHC18
Retention time: 3.745 min
Base peak: 253.0507
Precursor m/z: 253.0507
Precursor type: [M-H]-
Precursor intensity: 549038200
m/z	relative intensity
208.4968	999
