Mass spectrum: C18:1(?9-cis) Carnitine; ESI-TOF; MS2; CE: 0.6458333;  [M+H]+
Name: C18:1(?9-cis) Carnitine
Class: NA
Formula: C25H47NO4
Exact mass: 425.35051
SMILES: [H]C(=C([H])C([H])([H])C([H])([H])C([H])([H])C([H])([H])C([H])([H])C([H])([H])C([H])([H])C([H])([H])[H])C([H])([H])C([H])([H])C([H])([H])C([H])([H])C([H])([H])C([H])([H])C([H])([H])C(=O)OC([H])(C([H])([H])C(=O)[O-])C([H])([H])[N+](C([H])([H])[H])(C([H])([H])[H])C([H])([H])[H]
InChI: InChI=1S/C25H47NO4/c1-5-6-7-8-9-10-11-12-13-14-15-16-17-18-19-20-25(29)30-23(21-24(27)28)22-26(2,3)4/h12-13,23H,5-11,14-22H2,1-4H3
Instrument: waters xevo g2 TOF
Instrument type: ESI-TOF
Ms type: MS2
Ion mode: POSITIVE
Ionization: ESI
Collision energy: 0.6458333
Column name: Acquity CSHC18
Retention time: 5.180 min
Base peak: 426.35851
Precursor m/z: 426.35851
Precursor type: [M+H]+
m/z	relative intensity
57.0709	3
60.0822	40
67.0554	3
69.0709	13
71.0867	7
79.0556	2
81.0707	28
83.086	32
85.0661	999
86.0327	94
87.034	11
93.0704	8
95.0864	27
97.1017	37
98.1038	3
99.0448	67
100.0482	3
103.0392	4
107.0858	7
109.1018	34
111.1173	21
113.0968	2
115.0766	2
121.102	44
122.1049	2
123.117	19
125.0964	17
135.1173	52
136.1208	4
137.1327	8
139.1122	16
140.1154	1
143.1075	3
144.1024	127
145.1052	11
149.1328	41
150.1369	1
151.1489	10
152.1527	1
153.1275	24
157.0499	45
158.0522	2
163.1482	29
164.1513	2
165.1636	9
167.143	20
177.1641	22
178.1677	2
181.1587	21
182.1634	2
191.18	10
195.1747	7
199.1463	2
205.1952	6
209.1903	13
213.1484	5
223.2065	2
227.1281	19
241.1438	33
242.1485	2
247.2426	62
248.2462	11
255.1595	44
256.163	6
265.2511	93
266.2568	19
269.1747	51
270.1782	8
283.2262	27
284.1937	5
297.2058	49
298.2091	4
311.221	40
312.2246	8
325.2381	14
326.2419	1
367.284	128
368.2867	32
369.2913	3
389.2663	7
390.2693	2
426.4171	742
427.3605	835
