Mass spectrum: 8-Hydroxy-7-methoxychromen-2-one; LC-ESI-ITFT; MS2; CE: 45eV;  [M+H]+
Name: 8-Hydroxy-7-methoxychromen-2-one
Class: coumarin
Formula: C10H8O4
Exact mass: 192.0423
SMILES: COC1=C(C2=C(C=C1)C=CC(=O)O2)O
InChI: InChI=1S/C10H8O4/c1-13-7-4-2-6-3-5-8(11)14-10(6)9(7)12/h2-5,12H,1H3
Instrument: LTQ Orbitrap XL, Thermo Scientfic; Dionex Ultimate 300
Instrument type: LC-ESI-ITFT
Ms type: MS2
Ion mode: POSITIVE
Ionization: ESI
Collision energy: 45eV
Column name: Uptispher ODB C22
Retention time: 20.9 min
Base peak: 193.0486
Precursor m/z: 193.0486
Precursor type: [M+H]+
m/z	relative intensity
104.8527	6
146.8859	18
177.8233	999
