Mass spectrum: LEUCINE; LC-ESI-QFT; MS2; CE: 30eV;  [M+H]+
Name: LEUCINE
Class: NA
Formula: C6H13NO2
Exact mass: 131.09463
SMILES: CC(C)C[C@H](N)C(O)=O
InChI: InChI=1S/C6H13NO2/c1-4(2)3-5(7)6(8)9/h4-5H,3,7H2,1-2H3,(H,8,9)/t5-/m0/s1
Instrument: Q-Exactive Orbitrap, Thermo Scientfic; Ultimate 3000 HPLC, Thermo Scientfic
Instrument type: LC-ESI-QFT
Ms type: MS2
Ion mode: POSITIVE
Ionization: ESI
Collision energy: 30eV
Column name: Acquity CSHC18
Retention time: 1.005 min
Base peak: 132.1019
Precursor m/z: 132.1019
Precursor type: [M+H]+
Precursor intensity: 104
m/z	relative intensity
51.3926	16
58.0658	24
67.7215	18
68.2812	18
69.0706	143
71.1689	18
79.053	23
87.094	38
87.1005	544
98.0971	32
100.8204	24
115.1236	33
117.9168	20
121.4858	21
132.1023	999
132.1501	36
