Mass spectrum: Miltirone; LC-ESI-QFT; MS2; CE: 15,30,45 (NCE);  [M+Na]+
Name: Miltirone
Class: NA
Formula: C19H22O2
Exact mass: 282.1620
SMILES: CC(C)C1=CC2=C(C(=O)C1=O)C1=C(C=C2)C(C)(C)CCC1
InChI: InChI=1S/C19H22O2/c1-11(2)14-10-12-7-8-15-13(6-5-9-19(15,3)4)16(12)18(21)17(14)20/h7-8,10-11H,5-6,9H2,1-4H3
Instrument: QE Focus, Thermo Scientfic; UPLC I-Class, Waters
Instrument type: LC-ESI-QFT
Ms type: MS2
Ion mode: POSITIVE
Ionization: ESI
Collision energy: 15,30,45 (NCE)
Column name: Acquity CSHC18
Retention time: 5.079 min
Base peak: 305.1510
Precursor m/z: 305.1510
Precursor type: [M+Na]+
Precursor intensity: 171901600
m/z	relative intensity
59.7009	8
73.7122	10
75.5507	9
76.7796	11
111.7886	9
140.8499	11
148.5884	11
204.6019	10
235.45	10
256.7466	10
305.1511	999
