Mass spectrum: Abscisic acid, Dimer; LC-ESI-QTOF; MS2; CE: 0.00;  [2M+H]+
Name: Abscisic acid, Dimer
Class: NA
Formula: C15H20O4
Exact mass: 264.1362
SMILES: CC1=CC(=O)CC(C1(C=CC(=CC(=O)O)C)O)(C)C
InChI: InChI=1S/C15H20O4/c1-10(7-13(17)18)5-6-15(19)11(2)8-12(16)9-14(15,3)4/h5-8,19H,9H2,1-4H3,(H,17,18)
Instrument: Bruker MicrOTOF-Q
Instrument type: LC-ESI-QTOF
Ms type: MS2
Ion mode: POSITIVE
Ionization: ESI
Collision energy: 0.00
Column name: Acquity CSHC18
Retention time: NA
Base peak: 529.2796
Precursor m/z: 529.2796
Precursor type: [2M+H]+
m/z	relative intensity
109.0447	87
124.0621	109
135.2848	117
152.0917	122
159.4199	134
163.3087	157
165.3896	164
170.3571	175
175.5935	185
177.4077	204
188.698	237
207.2804	249
220.3413	390
220.5605	678
231.8698	788
247.5312	999
