Mass spectrum: daidzein; LC-ESI-ITFT; MS2; CE: 0.3;  [M-H]-
Name: daidzein
Class: isoflavones
Formula: C15H10O4
Exact mass: 254.0579
SMILES: C1=CC(=CC=C1C2=COC3=C(C2=O)C=CC(=C3)O)O
InChI: InChI=1S/C15H10O4/c16-10-3-1-9(2-4-10)13-8-19-14-7-11(17)5-6-12(14)15(13)18/h1-8,16-17H
Instrument: LTQ-Orbitrap XL hybrid mass spectrometer (Thermo Scientific)
Instrument type: LC-ESI-ITFT
Ms type: MS2
Ion mode: NEGATIVE
Ionization: ESI
Collision energy: 0.3
Column name: Acquity CSHC18
Retention time: 7.043 min
Base peak: 253.0504
Precursor m/z: 253.0504
Precursor type: [M-H]-
Precursor intensity: 31652060
m/z	relative intensity
59.7413	26
60.4325	24
60.8013	27
62.0749	38
73.6186	33
75.2963	31
84.3862	34
87.6262	34
88.7321	35
103.73	33
105.095	31
106.1846	30
123.4262	37
123.9684	35
125.3022	32
130.1048	32
139.0831	33
144.986	33
215.6311	36
225.0555	42
253.0503	999
