Mass spectrum: L-Glucose; ESI-TOF; MS2; CE: 0.6458333;  [M+H]+
Name: L-Glucose
Class: NA
Formula: C6H12O6
Exact mass: 180.06339
SMILES: OCC1OC(O)C(O)C(O)C1O
InChI: InChI=1S/C6H12O6/c7-1-2-3(8)4(9)5(10)6(11)12-2/h2-11H,1H2
Instrument: waters xevo g2 TOF
Instrument type: ESI-TOF
Ms type: MS2
Ion mode: POSITIVE
Ionization: ESI
Collision energy: 0.6458333
Column name: Acquity CSHC18
Retention time: 0.532 min
Base peak: 181.07139
Precursor m/z: 181.07139
Precursor type: [M+H]+
m/z	relative intensity
85.0285	312
98.9758	999
113.94	655
127.04	148
145.0497	11
158.9974	610
173.9616	391
174.9695	828
186.9697	185
197.9628	186
200.0445	170
200.5457	11
203.0526	214
204.0566	11
209.0328	11
215.9728	163
227.005	11
233.9826	103
234.9888	11
280.9953	11
281.0718	11
290.0767	11
290.5787	11
292.0081	11
294.0036	63
299.0647	11
324.0153	11
383.1179	11
