Mass spectrum: deoxyadenosine; LC-ESI-QTOF; MS2; CE: -10, -35, -60V;  [M-H]-
Name: deoxyadenosine
Class: NA
Formula: C10H13N5O3
Exact mass: 251.1018
SMILES: C1C(C(OC1N2C=NC3=C(N=CN=C32)N)CO)O
InChI: InChI=1S/C10H13N5O3/c11-9-8-10(13-3-12-9)15(4-14-8)7-1-5(17)6(2-16)18-7/h3-7,16-17H,1-2H2,(H2,11,12,13)
Instrument: TripleToF 5600; Sciex
Instrument type: LC-ESI-QTOF
Ms type: MS2
Ion mode: NEGATIVE
Ionization: ESI
Collision energy: -10, -35, -60V
Column name: Acquity CSHC18
Retention time: 2.616 min
Base peak: 250.0960
Precursor m/z: 250.0960
Precursor type: [M-H]-
Precursor intensity: 4348.88
m/z	relative intensity
134.048	999
174.1093	333
250.0983	666
250.1341	666
