Mass spectrum: Kaempferol 3-rutinoside-7-glucoside; LC-ESI-ITFT; MS2; CE: 35eV;  [M+H]+
Name: Kaempferol 3-rutinoside-7-glucoside
Class: Flavonoid
Formula: C33H40O20
Exact mass: 756.2113
SMILES: CC1C(C(C(C(O1)OCC2C(C(C(C(O2)OC3=C(OC4=CC(=CC(=C4C3=O)O)OC5C(C(C(C(O5)CO)O)O)O)C6=CC=C(C=C6)O)O)O)O)O)O)O
InChI: InChI=1S/C33H40O20/c1-10-19(37)23(41)26(44)31(48-10)47-9-17-21(39)25(43)28(46)33(52-17)53-30-22(40)18-14(36)6-13(49-32-27(45)24(42)20(38)16(8-34)51-32)7-15(18)50-29(30)11-2-4-12(35)5-3-11/h2-7,10,16-17,19-21,23-28,31-39,41-46H,8-9H2,1H3
Instrument: LTQ Orbitrap XL, Thermo Scientfic; Dionex Ultimate 300
Instrument type: LC-ESI-ITFT
Ms type: MS2
Ion mode: POSITIVE
Ionization: ESI
Collision energy: 35eV
Column name: Lichrospher C18 Column 250*4 5um, Interchim
Retention time: 37.15 min
Base peak: 757.2194
Precursor m/z: 757.2194
Precursor type: [M+H]+
m/z	relative intensity
286.9102	653
328.9598	16
396.8599	19
415.1008	22
431.1753	15
433.027	58
448.9633	999
490.9015	11
577.1719	17
594.3962	50
595.0413	221
610.1859	59
610.9041	360
621.0216	12
695.4322	10
721.452	14
