Mass spectrum: Pyroglutamic acid; LC-ESI-ITFT; MS2; CE: 60;  [M+H]+
Name: Pyroglutamic acid
Class: Organic acids and derivatives; Carboxylic acids and derivatives; Amino acids, peptides, and analogues
Formula: C5H7NO3
Exact mass: 129.04259
SMILES: OC(=O)[C@@H]1CCC(=O)N1
InChI: InChI=1S/C5H7NO3/c7-4-2-1-3(6-4)5(8)9/h3H,1-2H2,(H,6,7)(H,8,9)/t3-/m0/s1
Instrument: Thermo Scientific Q-Exactive Focus
Instrument type: LC-ESI-ITFT
Ms type: MS2
Ion mode: POSITIVE
Ionization: ESI
Collision energy: 60
Column name: Acquity CSHC18
Retention time: 1.986 min
Base peak: 130.04987
Precursor m/z: 130.04987
Precursor type: [M+H]+
m/z	relative intensity
53.0028	204
54.0903	149
55.935	999
56.05	393
72.8062	185
72.9376	256
83.6856	163
102.066	185
137.8445	159
143.239	145
