Mass spectrum: 3-AMINO-4-HYDROXYBENZOATE; LC-ESI-QTOF; MS2; CE: 20;  [M-H]-
Name: 3-AMINO-4-HYDROXYBENZOATE
Class: NA
Formula: C7H7NO3
Exact mass: 153.04259
SMILES: C1=CC(=C(C=C1C(=O)O)N)O
InChI: InChI=1S/C7H7NO3/c8-5-3-4(7(10)11)1-2-6(5)9/h1-3,9H,8H2,(H,10,11)
Instrument: Agilent 6530Â Q-TOF LC/MS
Instrument type: LC-ESI-QTOF
Ms type: MS2
Ion mode: NEGATIVE
Ionization: ESI
Collision energy: 20
Column name: NA
Retention time: 0.200 min
Base peak: 152.03448
Precursor m/z: 152.03448
Precursor type: [M-H]-
Precursor intensity: 117
m/z	relative intensity
107.0526	544
108.0696	999
