Mass spectrum: Sinapyl alcohol; LC-ESI-QTOF; MS2; CE: 15.00;  [M-H2O+H]+
Name: Sinapyl alcohol
Class: NA
Formula: C11H14O4
Exact mass: 210.0892
SMILES: COC1=CC(=CC(=C1O)OC)C=CCO
InChI: InChI=1S/C11H14O4/c1-14-9-6-8(4-3-5-12)7-10(15-2)11(9)13/h3-4,6-7,12-13H,5H2,1-2H3
Instrument: Bruker MicrOTOF-Q
Instrument type: LC-ESI-QTOF
Ms type: MS2
Ion mode: POSITIVE
Ionization: ESI
Collision energy: 15.00
Column name: Acquity CSHC18
Retention time: NA
Base peak: 193.0859
Precursor m/z: 193.0859
Precursor type: [M-H2O+H]+
m/z	relative intensity
103.0468	6
115.0524	206
116.049	13
117.0619	5
118.0435	12
129.0277	6
129.0658	4
131.0469	87
132.0511	43
132.9888	10
133.0629	999
133.2407	8
133.5092	12
134.0651	67
135.075	6
142.0495	9
143.0631	7
146.0341	7
147.0557	7
149.0503	4
150.0114	6
150.0629	7
160.0471	10
161.0576	667
162.06	72
163.0412	19
164.04	7
167.0706	15
178.0591	25
193.0835	46
194.0837	9
472.1375	6
