Mass spectrum: Pipecolic acid; LC-ESI-ITFT; MS2; CE: 20;  [M-H]-
Name: Pipecolic acid
Class: Organic acids and derivatives; Carboxylic acids and derivatives; Amino acids, peptides, and analogues
Formula: C6H11NO2
Exact mass: 129.07898
SMILES: OC(=O)C1CCCCN1
InChI: InChI=1S/C6H11NO2/c8-6(9)5-3-1-2-4-7-5/h5,7H,1-4H2,(H,8,9)
Instrument: Thermo Scientific Q-Exactive Focus
Instrument type: LC-ESI-ITFT
Ms type: MS2
Ion mode: NEGATIVE
Ionization: ESI
Collision energy: 20
Column name: Acquity CSHC18
Retention time: 0.646 min
Base peak: 128.07170
Precursor m/z: 128.07170
Precursor type: [M-H]-
m/z	relative intensity
74.3132	32
81.8961	34
90.8798	33
92.5137	33
92.5153	48
100.1032	31
128.0342	383
128.0705	999
136.8589	31
138.6665	31
