Mass spectrum: PANTOTHENATE; LC-ESI-QFT; MS2; CE: 30eV;  [M+H]+
Name: PANTOTHENATE
Class: NA
Formula: C9H17NO5
Exact mass: 219.11067
SMILES: CC(C)(CO)C(O)C(=O)NCCC(O)=O
InChI: InChI=1S/C9H17NO5/c1-9(2,5-11)7(14)8(15)10-4-3-6(12)13/h7,11,14H,3-5H2,1-2H3,(H,10,15)(H,12,13)
Instrument: Q-Exactive Orbitrap, Thermo Scientfic; Ultimate 3000 HPLC, Thermo Scientfic
Instrument type: LC-ESI-QFT
Ms type: MS2
Ion mode: POSITIVE
Ionization: ESI
Collision energy: 30eV
Column name: Acquity CSHC18
Retention time: 2.758 min
Base peak: 220.1180
Precursor m/z: 220.1180
Precursor type: [M+H]+
Precursor intensity: 130
m/z	relative intensity
50.6054	2
52.1116	3
53.8809	2
57.0707	46
59.05	24
62.9203	3
63.7833	3
65.2373	2
67.055	21
68.03	2
69.0706	81
70.0295	7
72.0451	199
73.0292	38
74.0245	6
83.0499	8
85.0655	147
86.0972	20
87.0812	57
88.6117	2
90.4264	3
91.059	41
95.0499	67
96.0814	6
98.0243	161
100.0399	62
103.076	247
104.6219	3
111.3132	2
113.0604	34
114.0543	3
115.9597	3
116.0347	436
117.0381	4
124.0761	194
130.0867	6
131.0706	18
132.1023	13
142.0866	152
156.1025	28
160.0972	93
166.0867	76
172.0974	6
174.113	83
184.0972	718
185.1006	37
193.1599	3
194.6092	3
195.5201	3
202.1079	999
203.1114	57
214.9917	3
220.1184	872
221.1221	49
242.4194	3
