Mass spectrum: ITACONATE; LC-ESI-QTOF; MS2; CE: 40;  [M-H]-
Name: ITACONATE
Class: NA
Formula: C5H6O4
Exact mass: 130.02661
SMILES: OC(=O)CC(=C)C(O)=O
InChI: InChI=1S/C5H6O4/c1-3(5(8)9)2-4(6)7/h1-2H2,(H,6,7)(H,8,9)
Instrument: Agilent 6530Â Q-TOF LC/MS
Instrument type: LC-ESI-QTOF
Ms type: MS2
Ion mode: NEGATIVE
Ionization: ESI
Collision energy: 40
Column name: NA
Retention time: 0.200 min
Base peak: 129.02011
Precursor m/z: 129.02011
Precursor type: [M-H]-
Precursor intensity: 189
m/z	relative intensity
41.0478	999
