Mass spectrum: ETHYLMALONATE; LC-ESI-QTOF; MS2; CE: 20;  [M-H]-
Name: ETHYLMALONATE
Class: NA
Formula: C5H8O4
Exact mass: 132.04226
SMILES: CCC(C(O)=O)C(O)=O
InChI: InChI=1S/C5H8O4/c1-2-3(4(6)7)5(8)9/h3H,2H2,1H3,(H,6,7)(H,8,9)
Instrument: Agilent 6530Â Q-TOF LC/MS
Instrument type: LC-ESI-QTOF
Ms type: MS2
Ion mode: NEGATIVE
Ionization: ESI
Collision energy: 20
Column name: NA
Retention time: 0.200 min
Base peak: 131.03418
Precursor m/z: 131.03418
Precursor type: [M-H]-
Precursor intensity: 159
m/z	relative intensity
41.007	235
54.0206	476
69.0532	929
87.0701	999
