Mass spectrum: HISTIDINE; LC-ESI-QTOF; MS2; CE: 20;  [M+H]+
Name: HISTIDINE
Class: NA
Formula: C6H9N3O2
Exact mass: 155.06948
SMILES: N[C@@H](CC1=CNC=N1)C(O)=O
InChI: InChI=1S/C6H9N3O2/c7-5(6(10)11)1-4-2-8-3-9-4/h2-3,5H,1,7H2,(H,8,9)(H,10,11)/t5-/m0/s1
Instrument: Agilent 6530Â Q-TOF LC/MS
Instrument type: LC-ESI-QTOF
Ms type: MS2
Ion mode: POSITIVE
Ionization: ESI
Collision energy: 20
Column name: NA
Retention time: 0.200 min
Base peak: 156.07578
Precursor m/z: 156.07578
Precursor type: [M+H]+
Precursor intensity: 190.5
m/z	relative intensity
41.0412	25
42.0385	33
54.0451	38
55.0483	41
56.0714	43
66.0474	51
68.0677	53
74.0275	64
81.0711	66
82.0831	113
83.1233	124
83.494	178
84.0601	271
93.0807	347
95.0875	437
110.2971	500
111.0773	543
111.3217	920
156.0833	999
