Mass spectrum: EPINEPHRINE; LC-ESI-QTOF; MS2; CE: 10;  [M+H]+
Name: EPINEPHRINE
Class: NA
Formula: C9H13NO3
Exact mass: 183.08954
SMILES: CNC[C@H](O)C1=CC=C(O)C(O)=C1
InChI: InChI=1S/C9H13NO3/c1-10-5-9(13)6-2-3-7(11)8(12)4-6/h2-4,9-13H,5H2,1H3/t9-/m0/s1
Instrument: Agilent 6530Â Q-TOF LC/MS
Instrument type: LC-ESI-QTOF
Ms type: MS2
Ion mode: POSITIVE
Ionization: ESI
Collision energy: 10
Column name: NA
Retention time: 0.200 min
Base peak: 184.09530
Precursor m/z: 184.09530
Precursor type: [M+H]+
Precursor intensity: 90.5
m/z	relative intensity
41.037	25
42.051	27
43.0228	28
44.0532	28
56.0578	28
57.0815	29
58.0839	29
65.0351	29
67.0541	29
68.0574	30
70.0456	33
72.0406	34
77.0599	35
78.0517	35
79.0651	35
80.0491	35
81.0495	36
84.0854	36
85.0604	37
91.0751	37
93.0741	38
94.0664	38
95.0556	38
97.058	39
101.9512	40
102.1046	41
103.0537	42
104.0451	43
105.053	45
106.0421	46
107.2279	49
107.5197	49
108.0671	50
109.0554	56
110.0421	62
119.0633	63
120.1131	64
121.0729	66
122.0681	74
123.0706	77
124.0581	88
125.0751	92
130.0624	93
131.0479	94
132.0404	128
133.0764	130
134.0666	130
135.0805	135
135.2504	163
136.0447	175
137.0795	199
138.0844	206
146.0625	223
148.1094	265
149.091	286
150.0617	312
151.0991	473
151.3422	490
152.0516	596
166.6211	635
167.4894	648
167.8711	651
184.1522	999
