Mass spectrum: Alpha-Hydroxyisobutyric acid; LC-ESI-ITFT; MS2; CE: 10;  [M-H]-
Name: Alpha-Hydroxyisobutyric acid
Class: Organic acids and derivatives; Hydroxy acids and derivatives; Alpha hydroxy acids and derivatives
Formula: C4H8O3
Exact mass: 104.04734
SMILES: CC(C)(O)C(O)=O
InChI: InChI=1S/C4H8O3/c1-4(2,7)3(5)6/h7H,1-2H3,(H,5,6)
Instrument: Thermo Scientific Q-Exactive Focus
Instrument type: LC-ESI-ITFT
Ms type: MS2
Ion mode: NEGATIVE
Ionization: ESI
Collision energy: 10
Column name: Acquity CSHC18
Retention time: 0.365 min
Base peak: 103.04007
Precursor m/z: 103.04007
Precursor type: [M-H]-
m/z	relative intensity
57.0334	735
61.426	2
83.0053	2
85.0283	15
86.8946	2
103.0389	999
104.1614	2
107.2049	2
114.8226	2
123.3131	2
