Mass spectrum: alpha-D-Glucose 6-phosphate; LC-ESI-QTOF; MS2; CE: 35.00;  [M+H]+
Name: alpha-D-Glucose 6-phosphate
Class: NA
Formula: C6H13O9P
Exact mass: 260.0297
SMILES: C(C1C(C(C(C(O1)O)O)O)O)OP(=O)(O)O
InChI: InChI=1S/C6H13O9P/c7-3-2(1-14-16(11,12)13)15-6(10)5(9)4(3)8/h2-10H,1H2,(H2,11,12,13)
Instrument: Bruker MicrOTOF-Q
Instrument type: LC-ESI-QTOF
Ms type: MS2
Ion mode: POSITIVE
Ionization: ESI
Collision energy: 35.00
Column name: Acquity CSHC18
Retention time: NA
Base peak: 261.0370
Precursor m/z: 261.0370
Precursor type: [M+H]+
m/z	relative intensity
136.9321	999
220.8917	703
