Mass spectrum: TauroChenoDeoxyCholic Acid; LC-ESI-QTOF; MS2; CE: 60;  [M-2H2O+H]+
Name: TauroChenoDeoxyCholic Acid
Class: NA
Formula: C26H45NO6S
Exact mass: 499.29676
SMILES: CC(CCC(=O)NCCS(=O)(=O)O)C1CCC2C1(CCC3C2C(CC4C3(CCC(C4)O)C)O)C
InChI: InChI=1S/C26H45NO6S/c1-16(4-7-23(30)27-12-13-34(31,32)33)19-5-6-20-24-21(9-11-26(19,20)3)25(2)10-8-18(28)14-17(25)15-22(24)29/h16-22,24,28-29H,4-15H2,1-3H3,(H,27,30)(H,31,32,33)
Instrument: impact II
Instrument type: LC-ESI-QTOF
Ms type: MS2
Ion mode: POSITIVE
Ionization: ESI
Collision energy: 60
Column name: Acquity CSHC18
Retention time: 1.779 min
Base peak: 464.28240
Precursor m/z: 464.28240
Precursor type: [M-2H2O+H]+
m/z	relative intensity
108.0663	999
