Mass spectrum: METHYL 4-AMINOBUTYRATE; LC-ESI-QTOF; MS2; CE: 40;  [M+H]+
Name: METHYL 4-AMINOBUTYRATE
Class: NA
Formula: C5H11NO2
Exact mass: 117.07898
SMILES: COC(CCCN)=O
InChI: InChI=1S/C5H11NO2/c1-8-5(7)3-2-4-6/h2-4,6H2,1H3
Instrument: Agilent 6530Â Q-TOF LC/MS
Instrument type: LC-ESI-QTOF
Ms type: MS2
Ion mode: POSITIVE
Ionization: ESI
Collision energy: 40
Column name: NA
Retention time: 0.200 min
Base peak: 118.08652
Precursor m/z: 118.08652
Precursor type: [M+H]+
Precursor intensity: 40.5
m/z	relative intensity
41.0481	109
42.0343	146
43.0379	178
44.0533	232
58.0862	363
59.0423	421
68.0503	999
