Mass spectrum: L-2-Hydroxyglutaric acid; LC-ESI-ITFT; MS2; CE: 10;  [M-H]-
Name: L-2-Hydroxyglutaric acid
Class: Lipids and lipid-like molecules; Fatty Acyls; Fatty acids and conjugates
Formula: C5H8O5
Exact mass: 148.03717
SMILES: O[C@@H](CCC(O)=O)C(O)=O
InChI: InChI=1S/C5H8O5/c6-3(5(9)10)1-2-4(7)8/h3,6H,1-2H2,(H,7,8)(H,9,10)/t3-/m0/s1
Instrument: Thermo Scientific Q-Exactive Focus
Instrument type: LC-ESI-ITFT
Ms type: MS2
Ion mode: NEGATIVE
Ionization: ESI
Collision energy: 10
Column name: Acquity CSHC18
Retention time: 0.360 min
Base peak: 147.02991
Precursor m/z: 147.02991
Precursor type: [M-H]-
m/z	relative intensity
57.0334	88
61.9872	20
85.0283	231
101.0232	157
102.9476	5
103.0388	203
118.9651	5
129.0182	999
147.0288	240
156.1458	3
