Mass spectrum: Benzoyl benzoate; LC-ESI-QTOF; MS2; CE: 15.00;  [M+Na]+
Name: Benzoyl benzoate
Class: NA
Formula: C14H10O3
Exact mass: 226.0630
SMILES: C1=CC=C(C=C1)C(=O)OC(=O)C2=CC=CC=C2
InChI: InChI=1S/C14H10O3/c15-13(11-7-3-1-4-8-11)17-14(16)12-9-5-2-6-10-12/h1-10H
Instrument: Bruker MicrOTOF-Q
Instrument type: LC-ESI-QTOF
Ms type: MS2
Ion mode: POSITIVE
Ionization: ESI
Collision energy: 15.00
Column name: Acquity CSHC18
Retention time: NA
Base peak: 249.0522
Precursor m/z: 249.0522
Precursor type: [M+Na]+
m/z	relative intensity
105.0311	999
144.0762	114
238.889	119
