Mass spectrum: 4-Hydroxycinnamaldehyde; LC-ESI-ITFT; MS2; CE: 45eV;  [M-H]-
Name: 4-Hydroxycinnamaldehyde
Class: phenolic acid
Formula: C9H8O2
Exact mass: 148.0524
SMILES: C1=CC(=CC=C1C=CC=O)O
InChI: InChI=1S/C9H8O2/c10-7-1-2-8-3-5-9(11)6-4-8/h1-7,11H
Instrument: LTQ Orbitrap XL, Thermo Scientfic; Dionex Ultimate 300
Instrument type: LC-ESI-ITFT
Ms type: MS2
Ion mode: NEGATIVE
Ionization: ESI
Collision energy: 45eV
Column name: Alltima C18
Retention time: 16.94 min
Base peak: 147.0449
Precursor m/z: 147.0449
Precursor type: [M-H]-
m/z	relative intensity
73.0741	76
102.8926	999
