Mass spectrum: 2,4-Diaminobutyric acid; ESI-TOF; MS2; CE: 0.6458333;  [M+H]+
Name: 2,4-Diaminobutyric acid
Class: NA
Formula: C4H10N2O2
Exact mass: 118.07423
SMILES: NCCC(N)C(O)=O
InChI: InChI=1S/C4H10N2O2/c5-2-1-3(6)4(7)8/h3H,1-2,5-6H2,(H,7,8)
Instrument: waters xevo g2 TOF
Instrument type: ESI-TOF
Ms type: MS2
Ion mode: POSITIVE
Ionization: ESI
Collision energy: 0.6458333
Column name: Acquity CSHC18
Retention time: 0.477 min
Base peak: 119.08223
Precursor m/z: 119.08223
Precursor type: [M+H]+
m/z	relative intensity
90.9795	191
91.9549	68
96.9613	9
101.0713	177
102.0917	52
103.0578	9
106.993	9
110.9769	387
113.9643	9
118.0865	9
119.0824	139
126.9964	107
128.0039	999
129.0317	208
131.0108	192
133.9291	192
137.9721	9
138.9909	9
140.9629	9
141.9596	553
145.0181	362
154.9914	333
157.0303	189
158.0032	9
160.9881	9
162.9898	9
169.0307	9
173.0011	414
174.009	9
174.9541	9
178.123	9
180.0009	52
182.0147	506
184.9866	9
191.0231	9
195.9135	64
198.0316	103
200.0722	389
200.9958	9
202.0985	9
203.0356	9
211.0413	507
217.9998	9
219.0071	9
225.0891	83
228.0669	414
237.0432	105
246.0771	88
258.1721	9
272.0579	93
273.0639	9
275.1067	9
286.0722	9
288.0731	9
290.0675	9
291.0745	9
293.0772	9
295.0717	9
302.1965	9
313.0593	9
318.9353	9
326.9817	143
400.0641	145
408.1417	9
408.7816	9
463.0679	9
465.0697	80
508.07	9
580.1375	9
581.1398	9
582.1413	9
584.1323	9
