Mass spectrum: Wogonoside; LC-ESI-QTOF; MS2; CE: 50eV;  [M-H]-
Name: Wogonoside
Class: Flavone
Formula: C22H20O11
Exact mass: 460.1006
SMILES: COC1=C(C=C(C2=C1OC(=CC2=O)C3=CC=CC=C3)O)OC4C(C(C(C(O4)C(=O)O)O)O)O
InChI: InChI=1S/C22H20O11/c1-30-18-13(32-22-17(27)15(25)16(26)20(33-22)21(28)29)8-11(24)14-10(23)7-12(31-19(14)18)9-5-3-2-4-6-9/h2-8,15-17,20,22,24-27H,1H3,(H,28,29)
Instrument: TIMS-TOF Pro, Bruker Daltonik; Elute UHPLC System, Bruker Daltonik
Instrument type: LC-ESI-QTOF
Ms type: MS2
Ion mode: NEGATIVE
Ionization: ESI
Collision energy: 50eV
Column name: Acquity CSHC18
Retention time: 7.128 min
Base peak: 459.0852
Precursor m/z: 459.0852
Precursor type: [M-H]-
Precursor intensity: 73834.22
m/z	relative intensity
16.604	13
26.121	16
36.2188	3
41.0025	10
44.9976	143
46.0026	16
53.0016	9
57.0322	9
59.0127	391
59.1994	10
59.2953	8
60.0162	26
64.9521	19
66.9792	22
69.0336	17
71.0113	228
73.0277	18
75.0069	86
81.5637	13
82.1771	10
84.0198	40
85.0272	346
85.3547	10
86.0304	13
87.0072	166
88.0102	17
89.0219	120
94.0035	14
95.0105	54
96.0152	23
99.0061	272
100.0112	21
103.0023	59
103.9969	13
104.4862	16
109.0264	9
109.9966	32
113.0219	818
113.1443	13
114.0248	51
115.0017	35
117.0175	48
118.0192	16
119.013	20
129.0123	14
130.0226	11
135.0816	6
137.0219	57
137.9925	39
138.8868	10
141.75	7
142.5922	13
145.8319	15
152.734	9
156.2399	16
163.0006	222
164.5078	7
165.9874	76
167.2167	23
171.0409	11
173.0635	11
175.023	227
175.3381	8
176.0257	40
183.2208	15
184.6514	6
196.0513	21
198.0277	70
200.6814	19
212.0439	31
226.0602	17
254.7887	14
268.0337	487
268.1654	8
268.3074	19
269.0337	48
270.0406	29
278.1483	6
282.9886	999
283.2201	15
283.4271	15
283.5306	24
283.6515	13
283.7856	17
283.9299	10
284.0592	623
284.1522	12
284.2134	6
284.5138	10
284.7054	9
284.857	8
285.062	66
285.7305	9
289.3453	8
459.0852	108
