Mass spectrum: Kinetin; LC-ESI-QTOF; MS2; CE: 35;  [M-H]-
Name: Kinetin
Class: NA
Formula: C10H9N5O
Exact mass: 215.0807
SMILES: C1=COC(=C1)CNC2=NC=NC3=C2NC=N3
InChI: InChI=1S/C10H9N5O/c1-2-7(16-3-1)4-11-9-8-10(13-5-12-8)15-6-14-9/h1-3,5-6H,4H2,(H2,11,12,13,14,15)
Instrument: Bruker MicrOTOF-Q
Instrument type: LC-ESI-QTOF
Ms type: MS2
Ion mode: NEGATIVE
Ionization: ESI
Collision energy: 35
Column name: Acquity CSHC18
Retention time: NA
Base peak: 214.0740
Precursor m/z: 214.0740
Precursor type: [M-H]-
m/z	relative intensity
90.0101	83
92.0203	115
106.0267	187
107.0355	222
117.0184	308
132.0306	999
133.0389	350
134.0466	233
