Mass spectrum: N-ACETYLMANNOSAMINE; LC-ESI-QFT; MS2; CE: 30eV;  [M+H]+
Name: N-ACETYLMANNOSAMINE
Class: NA
Formula: C8H15NO6
Exact mass: 221.08994
SMILES: [H][C@@]1(O)O[C@H](CO)[C@@H](O)[C@H](O)[C@@H]1NC(C)=O
InChI: InChI=1S/C8H15NO6/c1-3(11)9-5-7(13)6(12)4(2-10)15-8(5)14/h4-8,10,12-14H,2H2,1H3,(H,9,11)/t4-,5+,6-,7-,8-/m1/s1
Instrument: Q-Exactive Orbitrap, Thermo Scientfic; Ultimate 3000 HPLC, Thermo Scientfic
Instrument type: LC-ESI-QFT
Ms type: MS2
Ion mode: POSITIVE
Ionization: ESI
Collision energy: 30eV
Column name: Acquity CSHC18
Retention time: 0.567 min
Base peak: 222.0972
Precursor m/z: 222.0972
Precursor type: [M+H]+
Precursor intensity: 117
m/z	relative intensity
55.0512	13
58.0659	15
62.9012	12
71.0285	12
74.1771	14
74.4813	12
81.0364	13
84.0451	382
92.8856	13
103.5908	19
111.0808	15
126.0554	999
126.9862	12
131.9483	13
138.0553	348
144.0658	115
146.5273	14
153.9807	17
156.9508	16
159.2321	14
165.1319	14
168.0656	68
186.0766	24
195.7787	14
198.9861	16
222.1129	76
225.0429	127
