Mass spectrum: Niveusin A; LC-ESI-ITFT; MS2; CE: 50eV;  [M+H]+
Name: Niveusin A
Class: Sesquiterpenelactone; Heliangolide
Formula: C20H26O8
Exact mass: 394.1628
SMILES: C/C=C(\C)/C(=O)OC1CC2(C(CC(O2)(/C(=C\C3C1C(=C)C(=O)O3)/CO)O)O)C
InChI: InChI=1S/C20H26O8/c1-5-10(2)17(23)27-14-7-19(4)15(22)8-20(25,28-19)12(9-21)6-13-16(14)11(3)18(24)26-13/h5-6,13-16,21-22,25H,3,7-9H2,1-2,4H3/b10-5+,12-6-
Instrument: Q Exactive Plus, ThermoFisher Scientific
Instrument type: LC-ESI-ITFT
Ms type: MS2
Ion mode: POSITIVE
Ionization: ESI
Collision energy: 50eV
Column name: Acquity CSHC18
Retention time: 5.490 min
Base peak: 395.1705
Precursor m/z: 395.1705
Precursor type: [M+H]+
Precursor intensity: 22252720
m/z	relative intensity
133.0831	383
145.083	506
157.0844	548
161.0783	713
163.0566	806
175.0939	999
