Mass spectrum: Scopolin; LC-ESI-QTOF; MS2; CE: 19.13;  [M+H]+
Name: Scopolin
Class: NA
Formula: C16H18O9
Exact mass: 354.0951
SMILES: COC1=C(C=C2C(=C1)C=CC(=O)O2)OC3C(C(C(C(O3)CO)O)O)O
InChI: InChI=1S/C16H18O9/c1-22-9-4-7-2-3-12(18)23-8(7)5-10(9)24-16-15(21)14(20)13(19)11(6-17)25-16/h2-5,11,13-17,19-21H,6H2,1H3
Instrument: Bruker MicrOTOF-Q
Instrument type: LC-ESI-QTOF
Ms type: MS2
Ion mode: POSITIVE
Ionization: ESI
Collision energy: 19.13
Column name: Acquity CSHC18
Retention time: NA
Base peak: 355.1024
Precursor m/z: 355.1024
Precursor type: [M+H]+
m/z	relative intensity
133.03	7
149.05	1
165.05	7
169.78	1
178.02	26
179.89	1
191.37	2
191.96	1
192.02	2
192.08	2
192.18	1
192.28	2
192.8	1
192.87	3
192.95	3
193.05	999
193.29	4
193.41	2
193.47	3
193.56	3
193.67	2
193.83	1
194.05	132
194.27	1
195.05	11
195.36	1
196.02	1
476.96	2
581.42	2
