Mass spectrum: PGB1; ESI-TOF; MS2; CE: 6.0000000;  [M+H]+
Name: PGB1
Class: NA
Formula: C20H32O4
Exact mass: 336.23006
SMILES: [H]OC(=O)C([H])([H])C([H])([H])C([H])([H])C([H])([H])C([H])([H])C([H])([H])C=1C(=O)C([H])([H])C([H])([H])C=1(C([H])=C([H])C([H])(O[H])C([H])([H])C([H])([H])C([H])([H])C([H])([H])C([H])([H])[H])
InChI: InChI=1S/C20H32O4/c1-2-3-6-9-17(21)14-12-16-13-15-19(22)18(16)10-7-4-5-8-11-20(23)24/h12,14,17,21H,2-11,13,15H2,1H3,(H,23,24)
Instrument: waters xevo g2 TOF
Instrument type: ESI-TOF
Ms type: MS2
Ion mode: POSITIVE
Ionization: ESI
Collision energy: 6.0000000
Column name: Acquity CSHC18
Retention time: 4.792 min
Base peak: 337.23806
Precursor m/z: 337.23806
Precursor type: [M+H]+
m/z	relative intensity
157.0985	2
159.1183	15
161.1322	2
173.1211	9
175.1484	4
179.091	50
179.5933	11
185.1332	7
187.1125	9
188.0963	116
188.5984	25
191.1446	1
195.1115	54
195.605	8
199.6052	19
200.1068	7
203.1444	13
204.1099	16
205.123	50
206.1246	7
208.6105	21
255.2107	7
265.197	10
273.2222	54
274.226	11
283.2067	54
284.2092	10
291.2325	37
301.217	773
302.2196	179
303.2235	22
319.2271	999
320.2303	236
321.2347	32
337.2382	293
338.2414	67
