Mass spectrum: 5,7-Dihydroxychromen-2-one; LC-ESI-ITFT; MS2; CE: 45eV;  [M-H]-
Name: 5,7-Dihydroxychromen-2-one
Class: coumarin
Formula: C9H6O4
Exact mass: 178.0266
SMILES: C1=CC(=O)OC2=CC(=CC(=C21)O)O
InChI: InChI=1S/C9H6O4/c10-5-3-7(11)6-1-2-9(12)13-8(6)4-5/h1-4,10-11H
Instrument: LTQ Orbitrap XL, Thermo Scientfic; Dionex Ultimate 300
Instrument type: LC-ESI-ITFT
Ms type: MS2
Ion mode: NEGATIVE
Ionization: ESI
Collision energy: 45eV
Column name: Alltima C18
Retention time: 15.96 min
Base peak: 177.0184
Precursor m/z: 177.0184
Precursor type: [M-H]-
m/z	relative intensity
76.9164	39
94.8835	2
130.6628	8
145.0419	17
177.0588	999
