Mass spectrum: FERULATE; LC-ESI-QFT; MS2; CE: 30eV;  [M+H]+
Name: FERULATE
Class: NA
Formula: C10H10O4
Exact mass: 194.05791
SMILES: COC1=C(O)C=CC(\C=C\C(O)=O)=C1
InChI: InChI=1S/C10H10O4/c1-14-9-6-7(2-4-8(9)11)3-5-10(12)13/h2-6,11H,1H3,(H,12,13)/b5-3+
Instrument: Q-Exactive Orbitrap, Thermo Scientfic; Ultimate 3000 HPLC, Thermo Scientfic
Instrument type: LC-ESI-QFT
Ms type: MS2
Ion mode: POSITIVE
Ionization: ESI
Collision energy: 30eV
Column name: Acquity CSHC18
Retention time: 6.765 min
Base peak: 195.0652
Precursor m/z: 195.0652
Precursor type: [M+H]+
Precursor intensity: 107
m/z	relative intensity
54.5263	2
56.1704	2
61.4046	2
65.483	2
75.8586	2
76.2174	2
89.0391	14
89.0603	5
100.9446	2
113.964	5
116.4471	2
117.0338	33
121.1803	2
126.9723	6
131.951	3
131.9745	10
133.2986	2
135.0443	15
135.117	2
144.9828	4
145.0286	392
146.032	19
149.06	34
149.9618	6
153.0546	3
157.8982	2
157.9789	2
163.0391	34
164.0103	3
167.9715	2
169.3199	2
172.9778	6
172.99	3
177.0548	999
178.0582	51
194.1179	28
195.0656	4
195.1213	11
