Mass spectrum: 3-tigloyloxy-6-(2'-hydroxy)-tropane; LC-ESI-QTOF; MS2; CE: 35eV;  [M+H]+
Name: 3-tigloyloxy-6-(2'-hydroxy)-tropane
Class: Tropane_alkaloid
Formula: C13H21NO4
Exact mass: 255.1471
SMILES: CC(=C(C)C(=O)OC1CC2C(C(C(C1)N2C)O)O)[H]
InChI: InChI=1S/C13H21NO4/c1-4-7(2)13(17)18-8-5-9-11(15)12(16)10(6-8)14(9)3/h4,8-12,15-16H,5-6H2,1-3H3
Instrument: maXis impact HD, Bruker; Dionex 3000, Thermo Scientific
Instrument type: LC-ESI-QTOF
Ms type: MS2
Ion mode: POSITIVE
Ionization: ESI
Collision energy: 35eV
Column name: Acquity CSHC18
Retention time: 4.674 min
Base peak: 256.1539
Precursor m/z: 256.1539
Precursor type: [M+H]+
Precursor intensity: 149118.9
m/z	relative intensity
79.0543	1
83.0479	2
91.0538	5
93.0574	6
96.0801	50
97.0645	14
106.0648	1
107.0484	27
110.0597	15
111.0989	8
112.0765	5
114.0948	1
116.9684	1
120.0802	44
123.0669	1
125.0591	7
128.1039	2
130.98	1
138.0906	227
139.0935	17
140.0955	2
148.9752	1
156.101	999
157.1045	75
158.1069	8
174.1112	3
190.9515	1
194.9441	1
256.1527	44
