Mass spectrum: H-Leu-Phe-OH; LC-ESI-QTOF; MS2; CE: 31.15;  [2M+H]+
Name: H-Leu-Phe-OH
Class: NA
Formula: C15H22N2O3
Exact mass: 278.1630
SMILES: CC(C)CC(C(=O)NC(CC1=CC=CC=C1)C(=O)O)N
InChI: InChI=1S/C15H22N2O3/c1-10(2)8-12(16)14(18)17-13(15(19)20)9-11-6-4-3-5-7-11/h3-7,10,12-13H,8-9,16H2,1-2H3,(H,17,18)(H,19,20)
Instrument: Bruker MicrOTOF-Q
Instrument type: LC-ESI-QTOF
Ms type: MS2
Ion mode: POSITIVE
Ionization: ESI
Collision energy: 31.15
Column name: Acquity CSHC18
Retention time: NA
Base peak: 557.3334
Precursor m/z: 557.3334
Precursor type: [2M+H]+
m/z	relative intensity
131.7	3
166.08	124
168.09	9
174.09	4
233.17	56
261.15	13
261.22	4
262.15	8
271.07	3
278.98	7
279.17	999
279.47	4
279.57	4
279.69	3
280.06	4
280.17	208
280.71	4
281.17	23
282.19	6
619.18	5
813.97	4
