Mass spectrum: delta-12-Prostaglandin D2; ESI-TOF; MS2; CE: 6.0000000;  [M+H]+
Name: delta-12-Prostaglandin D2
Class: NA
Formula: C20H32O5
Exact mass: 352.22497
SMILES: CCCCCC(O)C/C=C1/C(=O)CC(O)C/1C/C=C\CCCC(=O)O
InChI: InChI=1S/C20H32O5/c1-2-3-6-9-15(21)12-13-17-16(18(22)14-19(17)23)10-7-4-5-8-11-20(24)25/h4,7,13,15-16,18,21-22H,2-3,5-6,8-12,14H2,1H3,(H,24,25)/b7-4-,17-13+
Instrument: waters xevo g2 TOF
Instrument type: ESI-TOF
Ms type: MS2
Ion mode: POSITIVE
Ionization: ESI
Collision energy: 6.0000000
Column name: Acquity CSHC18
Retention time: 3.455 min
Base peak: 353.23297
Precursor m/z: 353.23297
Precursor type: [M+H]+
m/z	relative intensity
105.0704	7
127.0763	15
131.0873	3
147.1175	3
151.076	25
161.1152	3
177.1638	14
185.0963	8
189.1277	25
191.1435	29
196.0943	91
196.5946	19
199.1127	31
201.0924	5
203.1071	29
215.106	5
217.1216	126
218.1314	2
219.1276	2
233.1535	31
235.134	158
245.187	8
257.189	9
271.2068	23
273.0801	6
281.1899	42
282.199	12
289.2158	27
291.1927	10
299.2011	258
300.2059	53
301.1414	4
306.0565	183
307.0624	91
317.2112	646
318.214	131
322.1587	6
335.2223	999
336.2256	207
337.23	31
338.2251	2
353.2333	128
354.2331	24
