Mass spectrum: Harmane; LC-ESI-QTOF; MS2; CE: 15;  [M-H]-
Name: Harmane
Class: NA
Formula: C12H10N2
Exact mass: 182.0844
SMILES: CC1=NC=CC2=C1NC3=CC=CC=C23
InChI: InChI=1S/C12H10N2/c1-8-12-10(6-7-13-8)9-4-2-3-5-11(9)14-12/h2-7,14H,1H3
Instrument: Bruker MicrOTOF-Q
Instrument type: LC-ESI-QTOF
Ms type: MS2
Ion mode: NEGATIVE
Ionization: ESI
Collision energy: 15
Column name: Acquity CSHC18
Retention time: NA
Base peak: 181.0771
Precursor m/z: 181.0771
Precursor type: [M-H]-
m/z	relative intensity
45.1654	40
48.5005	53
49.9211	56
51.3641	55
53.183	49
54.5939	53
56.808	34
59.9634	63
63.2775	34
63.825	34
64.749	50
68.8656	50
73.1546	46
73.5765	47
75.6002	34
79.4316	39
82.3703	29
85.5927	46
87.1588	29
87.6432	46
88.5252	78
90.3502	44
92.2137	66
94.4444	47
96.1033	44
102.5215	47
103.8827	33
106.0564	66
109.9517	49
111.6047	43
114.5629	69
115.8958	46
116.3421	58
119.9644	43
124.474	55
125.2718	66
126.6249	40
128.9509	45
130.2453	37
139.6854	42
140.8876	46
142.0859	43
144.9855	29
147.1999	49
148.491	53
149.3637	65
150.4639	45
151.5398	58
156.0962	47
159.3997	37
160.5394	34
165.0176	47
166.7322	42
168.1601	58
171.9805	48
173.1222	50
175.6405	30
180.2599	86
181.3165	895
182.0792	999
183.1557	40
204.818	30
221.867	45
248.3814	31
250.4117	36
266.5938	50
297.2986	50
303.1061	30
363.847	40
385.9053	33
458.5006	31
498.2184	50
621.4706	58
720.8842	60
818.7544	42
870.8893	43
881.9374	29
891.9966	45
913.9346	59
