Mass spectrum: Racemethionine; LC-ESI-ITFT; MS2; CE: 45eV;  [M+H]+
Name: Racemethionine
Class: aminoacid
Formula: C5H11NO2S
Exact mass: 149.0510
SMILES: CSCCC(C(=O)O)N
InChI: InChI=1S/C5H11NO2S/c1-9-3-2-4(6)5(7)8/h4H,2-3,6H2,1H3,(H,7,8)
Instrument: LTQ Orbitrap XL, Thermo Scientfic; Dionex Ultimate 300
Instrument type: LC-ESI-ITFT
Ms type: MS2
Ion mode: POSITIVE
Ionization: ESI
Collision energy: 45eV
Column name: Alltima C18
Retention time: 2.63 min
Base peak: 150.0575
Precursor m/z: 150.0575
Precursor type: [M+H]+
m/z	relative intensity
94.1033	14
101.9753	999
120.0109	14
121.9105	765
