Mass spectrum: 2-Hydroxyglutaric acid; LC-ESI-QTOF; MS2; CE: 30;  [M-H]-
Name: 2-Hydroxyglutaric acid
Class: NA
Formula: C5H8O5
Exact mass: 148.0372
SMILES: C(CC(=O)O)C(C(=O)O)O
InChI: InChI=1S/C5H8O5/c6-3(5(9)10)1-2-4(7)8/h3,6H,1-2H2,(H,7,8)(H,9,10)
Instrument: impact II
Instrument type: LC-ESI-QTOF
Ms type: MS2
Ion mode: NEGATIVE
Ionization: ESI
Collision energy: 30
Column name: Acquity CSHC18
Retention time: 1.866 min
Base peak: 147.0298
Precursor m/z: 147.0298
Precursor type: [M-H]-
m/z	relative intensity
85.0295	999
86.0331	108
101.0246	973
103.0403	375
