Mass spectrum: (+)-Catechin; LC-ESI-QTOF; MS2; CE: 35;  [M-H2O-H]-
Name: (+)-Catechin
Class: NA
Formula: C15H16O7
Exact mass: 308.0896
SMILES: C1C(C(OC2=CC(=CC(=C21)O)O)C3=CC(=C(C=C3)O)O)O.O
InChI: InChI=1S/C15H14O6.H2O/c16-8-4-11(18)9-6-13(20)15(21-14(9)5-8)7-1-2-10(17)12(19)3-7;/h1-5,13,15-20H,6H2;1H2
Instrument: Bruker MicrOTOF-Q
Instrument type: LC-ESI-QTOF
Ms type: MS2
Ion mode: NEGATIVE
Ionization: ESI
Collision energy: 35
Column name: Acquity CSHC18
Retention time: NA
Base peak: 289.0717
Precursor m/z: 289.0717
Precursor type: [M-H2O-H]-
m/z	relative intensity
109.0266	628
122.0293	999
137.0218	582
