Mass spectrum: Ginsenoside Rg3; LC-ESI-QFT; MS2; CE: 15,30,45 (NCE);  [M+Na]+
Name: Ginsenoside Rg3
Class: NA
Formula: C42H72O13
Exact mass: 784.4973
SMILES: CC(C)=CCCC(C)(O)C1CCC2(C)C1C(O)CC1C3(C)CCC(OC4OC(CO)C(O)C(O)C4OC4OC(CO)C(O)C(O)C4O)C(C)(C)C3CCC21C
InChI: InChI=1S/C42H72O13/c1-21(2)10-9-14-42(8,51)22-11-16-41(7)29(22)23(45)18-27-39(5)15-13-28(38(3,4)26(39)12-17-40(27,41)6)54-37-35(33(49)31(47)25(20-44)53-37)55-36-34(50)32(48)30(46)24(19-43)52-36/h10,22-37,43-51H,9,11-20H2,1-8H3
Instrument: QE Focus, Thermo Scientfic; UPLC I-Class, Waters
Instrument type: LC-ESI-QFT
Ms type: MS2
Ion mode: POSITIVE
Ionization: ESI
Collision energy: 15,30,45 (NCE)
Column name: Acquity CSHC18
Retention time: 3.869 min
Base peak: 807.4862
Precursor m/z: 807.4862
Precursor type: [M+Na]+
Precursor intensity: 11431590
m/z	relative intensity
80.3889	2
82.0079	2
124.5362	2
143.9303	2
203.0537	3
245.0635	12
365.1055	89
382.2505	4
382.2894	3
451.5739	2
532.6315	3
538.5564	3
807.4864	999
