Mass spectrum: URATE; LC-ESI-QFT; MS2; CE: 30eV;  [M+H]+
Name: URATE
Class: NA
Formula: C5H4N4O3
Exact mass: 168.02834
SMILES: O=C1NC2=C(N1)C(=O)NC(=O)N2
InChI: InChI=1S/C5H4N4O3/c10-3-1-2(7-4(11)6-1)8-5(12)9-3/h(H4,6,7,8,9,10,11,12)
Instrument: Q-Exactive Orbitrap, Thermo Scientfic; Ultimate 3000 HPLC, Thermo Scientfic
Instrument type: LC-ESI-QFT
Ms type: MS2
Ion mode: POSITIVE
Ionization: ESI
Collision energy: 30eV
Column name: Acquity CSHC18
Retention time: 0.730 min
Base peak: 169.0356
Precursor m/z: 169.0356
Precursor type: [M+H]+
Precursor intensity: 178
m/z	relative intensity
50.4193	2
52.3075	2
53.0141	3
54.5144	3
55.0298	7
69.009	4
70.0406	41
80.1369	3
81.6485	3
82.4245	3
85.5553	4
90.5019	3
92.0588	4
96.0198	19
98.0355	106
99.0195	5
101.6526	3
102.3753	3
102.485	3
107.0861	17
114.5815	4
123.1175	6
124.0145	7
126.0302	204
131.117	4
132.1006	4
141.041	999
142.0443	17
151.0254	29
151.1123	6
152.0093	304
153.0125	5
154.6046	3
169.1227	5
170.0198	71
170.0327	35
170.0393	168
