Mass spectrum: Sugiol; LC-ESI-QFT; MS2; CE: 15,30,45 (NCE);  [M+H]+
Name: Sugiol
Class: NA
Formula: C20H28O2
Exact mass: 300.2089
SMILES: CC(C)C1=CC2=C(C=C1O)C1(C)CCCC(C)(C)C1CC2=O
InChI: InChI=1S/C20H28O2/c1-12(2)13-9-14-15(10-16(13)21)20(5)8-6-7-19(3,4)18(20)11-17(14)22/h9-10,12,18,21H,6-8,11H2,1-5H3
Instrument: QE Focus, Thermo Scientfic; UPLC I-Class, Waters
Instrument type: LC-ESI-QFT
Ms type: MS2
Ion mode: POSITIVE
Ionization: ESI
Collision energy: 15,30,45 (NCE)
Column name: Acquity CSHC18
Retention time: 4.434 min
Base peak: 301.2162
Precursor m/z: 301.2162
Precursor type: [M+H]+
Precursor intensity: 606061400
m/z	relative intensity
69.0706	3
83.0862	14
89.3666	2
97.8145	2
100.6505	3
113.8515	2
123.1173	27
149.0949	2
159.0802	3
163.0755	38
171.0811	26
185.0962	5
187.1124	3
188.9261	2
199.1119	6
201.1264	3
205.1223	19
213.1273	35
217.1226	4
227.1436	4
241.1596	6
259.169	72
301.2162	999
