Mass spectrum: Thyroxine; ESI-TOF; MS2; CE: 0.6458333;  [M+H]+
Name: Thyroxine
Class: NA
Formula: C15H11I4NO4
Exact mass: 776.68670
SMILES: NC(CC1=CC(I)=C(OC2=CC(I)=C(O)C(I)=C2)C(I)=C1)C(O)=O
InChI: InChI=1S/C15H11I4NO4/c16-8-4-7(5-9(17)13(8)21)24-14-10(18)1-6(2-11(14)19)3-12(20)15(22)23/h1-2,4-5,12,21H,3,20H2,(H,22,23)
Instrument: waters xevo g2 TOF
Instrument type: ESI-TOF
Ms type: MS2
Ion mode: POSITIVE
Ionization: ESI
Collision energy: 0.6458333
Column name: Acquity CSHC18
Retention time: 3.509 min
Base peak: 777.69470
Precursor m/z: 777.69470
Precursor type: [M+H]+
m/z	relative intensity
83.0502	8
91.0549	13
99.0444	2
106.0737	57
111.0443	7
119.0497	44
180.1567	1
261.028	2
289.9421	2
350.9737	4
379.9559	10
388.0259	5
411.1678	19
425.1351	49
441.1031	1
443.1	1
464.8526	1
506.8597	1
576.7602	3
604.7842	18
633.763	134
691.2568	2
702.6585	1
718.6579	22
731.6865	999
732.6963	165
733.6946	12
760.6656	47
777.6928	833
778.6969	118
