Mass spectrum: Niacinamide; LC-ESI-ITFT; MS2; CE: 10;  [M+H]+
Name: Niacinamide
Class: Organoheterocyclic compounds; Pyridines and derivatives; Pyridinecarboxylic acids and derivatives
Formula: C6H6N2O
Exact mass: 122.04801
SMILES: NC(=O)C1=CC=CN=C1
InChI: InChI=1S/C6H6N2O/c7-6(9)5-2-1-3-8-4-5/h1-4H,(H2,7,9)
Instrument: Thermo Scientific Q-Exactive Focus
Instrument type: LC-ESI-ITFT
Ms type: MS2
Ion mode: POSITIVE
Ionization: ESI
Collision energy: 10
Column name: Acquity CSHC18
Retention time: 0.149 min
Base peak: 123.05529
Precursor m/z: 123.05529
Precursor type: [M+H]+
m/z	relative intensity
56.9654	3
79.0183	7
80.0499	108
87.0427	1
88.0236	12
96.0447	26
106.0291	9
123.0556	999
124.0395	9
141.1295	1
