Mass spectrum: 4'-O-Methylkaempferol; LC-ESI-QTOF; MS2; CE: 50eV;  [M-H]-
Name: 4'-O-Methylkaempferol
Class: Flavonol
Formula: C16H12O6
Exact mass: 300.0634
SMILES: COC1=CC=C(C=C1)C2=C(C(=O)C3=C(C=C(C=C3O2)O)O)O
InChI: InChI=1S/C16H12O6/c1-21-10-4-2-8(3-5-10)16-15(20)14(19)13-11(18)6-9(17)7-12(13)22-16/h2-7,17-18,20H,1H3
Instrument: TIMS-TOF Pro, Bruker Daltonik; Elute UHPLC System, Bruker Daltonik
Instrument type: LC-ESI-QTOF
Ms type: MS2
Ion mode: NEGATIVE
Ionization: ESI
Collision energy: 50eV
Column name: Acquity CSHC18
Retention time: 9.092 min
Base peak: 299.0512
Precursor m/z: 299.0512
Precursor type: [M-H]-
Precursor intensity: 785558.5
m/z	relative intensity
23.0765	2
30.4377	2
36.9263	2
39.0239	2
39.7711	2
41.0025	13
43.7165	1
44.7051	4
48.266	1
50.5198	2
53.0452	3
54.7444	3
56.1439	3
60.8644	3
62.0138	3
63.0224	342
63.1846	1
63.3106	2
63.5605	2
64.0252	2
65.0029	180
65.1288	1
66.0059	11
67.4692	3
71.5171	2
74.689	2
77.0373	4
80.026	1
82.0057	1
83.0126	117
83.1318	2
83.2325	1
84.0154	9
85.0534	2
86.2749	1
91.016	5
92.0251	114
93.0276	7
94.0035	48
95.0121	41
96.0137	2
101.0387	1
103.7173	2
104.0242	37
104.6539	3
106.0684	3
107.0124	210
107.4451	2
107.7984	2
108.0195	87
108.5035	2
109.0231	11
109.2339	2
109.9635	3
111.3918	3
113.5219	2
117.0312	7
118.0037	2
120.0197	28
121.0219	3
121.9987	11
123.0091	2
124.9931	2
127.0534	3
130.0388	11
132.0187	153
132.1437	2
132.2978	1
133.0206	3
134.1724	4
135.0065	30
136.0141	19
137.0791	2
138.7029	3
140.0263	1
141.2548	3
142.0448	2
142.8144	3
144.0551	2
144.6007	4
145.91	4
148.4214	3
149.3063	3
149.993	7
151.0008	95
151.2275	3
151.6641	1
152.0041	9
153.0459	2
154.5476	3
155.0479	5
156.0528	3
156.2912	4
157.0609	3
157.6464	2
158.4432	1
159.0431	4
162.5339	3
163.0006	83
163.1718	2
163.3229	2
164.0087	35
165.0138	4
166.3411	3
168.0496	1
170.4681	5
173.1112	2
174.8103	2
176.6643	5
183.0415	15
184.0498	2
185.0222	4
185.6511	2
187.0372	3
190.2053	1
191.353	2
199.0386	5
200.0408	3
201.0523	1
205.361	2
210.0671	1
212.0416	3
225.8067	1
227.0309	6
230.6037	2
235.4923	1
242.7653	2
249.6728	1
255.0278	7
256.031	3
260.0581	3
274.654	4
283.0158	3
283.7803	2
283.9483	311
284.2878	4
284.45	5
284.6122	2
284.7027	4
284.8424	2
284.9821	56
285.1578	3
285.5627	2
285.7865	1
285.9411	1
286.0344	13
286.2345	1
286.6134	2
287.6848	1
294.9806	2
298.7881	1
298.9503	3
299.0335	999
299.3949	3
