Mass spectrum: Emodin; LC-ESI-QTOF; MS2; CE: 50eV;  [M+H]+
Name: Emodin
Class: Anthraquinone
Formula: C15H10O5
Exact mass: 270.0528
SMILES: CC1=CC2=C(C(=C1)O)C(=O)C3=C(C2=O)C=C(C=C3O)O
InChI: InChI=1S/C15H10O5/c1-6-2-8-12(10(17)3-6)15(20)13-9(14(8)19)4-7(16)5-11(13)18/h2-5,16-18H,1H3
Instrument: TIMS-TOF Pro, Bruker Daltonik; Elute UHPLC System, Bruker Daltonik
Instrument type: LC-ESI-QTOF
Ms type: MS2
Ion mode: POSITIVE
Ionization: ESI
Collision energy: 50eV
Column name: Acquity CSHC18
Retention time: 10.040 min
Base peak: 271.0587
Precursor m/z: 271.0587
Precursor type: [M+H]+
Precursor intensity: 33157
m/z	relative intensity
68.9859	5
107.0508	4
115.0516	33
116.0562	10
133.0302	4
135.0452	13
141.0701	29
169.0634	41
173.0539	6
187.0341	5
197.015	6
201.053	6
224.0558	5
229.0468	29
242.0413	4
271.0143	6
271.0587	999
