Mass spectrum: 1-palmitoyl-2-hydroxy-sn-glycero-3-phosphoethanolamine; ESI-TOF; MS2; CE: 0.6458333;  [M+H]+
Name: 1-palmitoyl-2-hydroxy-sn-glycero-3-phosphoethanolamine
Class: NA
Formula: C21H44NO7P
Exact mass: 453.28554
SMILES: [H]OC([H])(C([H])([H])OC(=O)C([H])([H])C([H])([H])C([H])([H])C([H])([H])C([H])([H])C([H])([H])C([H])([H])C([H])([H])C([H])([H])C([H])([H])C([H])([H])C([H])([H])C([H])([H])C([H])([H])C([H])([H])[H])C([H])([H])OP(=O)([O-])OC([H])([H])C([H])([H])[N+]([H])([H])[H]
InChI: InChI=1S/C21H44NO7P/c1-2-3-4-5-6-7-8-9-10-11-12-13-14-15-21(24)27-18-20(23)19-29-30(25,26)28-17-16-22/h20,23H,2-19,22H2,1H3,(H,25,26)
Instrument: waters xevo g2 TOF
Instrument type: ESI-TOF
Ms type: MS2
Ion mode: POSITIVE
Ionization: ESI
Collision energy: 0.6458333
Column name: Acquity CSHC18
Retention time: 6.293 min
Base peak: 454.29354
Precursor m/z: 454.29354
Precursor type: [M+H]+
m/z	relative intensity
62.0613	21
71.0864	22
81.0704	10
83.0863	22
85.1019	33
95.0859	45
97.1008	18
109.1014	25
123.1171	13
136.9315	106
155.0109	112
174.9467	11
192.9572	165
198.0533	19
216.0637	22
239.2376	34
257.2476	16
271.9834	18
282.2794	140
283.2851	28
313.2742	999
314.2778	219
315.2804	28
375.1606	13
393.241	76
394.2444	11
415.2222	39
431.1871	294
432.191	61
433.2319	192
434.2354	39
436.2825	271
437.2859	62
438.2883	9
449.1979	8
450.2106	1
454.2942	458
455.296	113
