Mass spectrum: 3-O-Methylquercetin; LC-ESI-QTOF; MS2; CE: 50eV;  [M-H]-
Name: 3-O-Methylquercetin
Class: Flavonol
Formula: C16H12O7
Exact mass: 316.0583
SMILES: COC1=C(OC2=CC(=CC(=C2C1=O)O)O)C3=CC(=C(C=C3)O)O
InChI: InChI=1S/C16H12O7/c1-22-16-14(21)13-11(20)5-8(17)6-12(13)23-15(16)7-2-3-9(18)10(19)4-7/h2-6,17-20H,1H3
Instrument: TIMS-TOF Pro, Bruker Daltonik; Elute UHPLC System, Bruker Daltonik
Instrument type: LC-ESI-QTOF
Ms type: MS2
Ion mode: NEGATIVE
Ionization: ESI
Collision energy: 50eV
Column name: Acquity CSHC18
Retention time: 6.986 min
Base peak: 315.0440
Precursor m/z: 315.0440
Precursor type: [M-H]-
Precursor intensity: 286766.4
m/z	relative intensity
38.9343	1
49.814	1
61.1378	1
65.0016	9
76.5606	2
82.0042	2
84.0053	1
92.0251	2
93.0367	1
96.0183	1
97.6817	1
101.2448	1
104.0226	1
107.0124	26
108.0195	46
108.9852	2
109.3097	1
110.2182	1
111.6065	2
115.0507	1
116.0915	1
120.0196	12
121.027	4
129.0302	2
130.2276	1
133.026	7
135.0046	8
136.0104	2
143.0482	6
145.0256	2
147.0071	8
147.8725	1
148.0144	63
148.1218	1
148.2389	2
149.0155	1
149.991	2
150.2905	1
151.0026	8
152.5216	2
153.2507	1
155.0478	3
156.0586	1
157.5691	1
158.3638	2
159.0431	2
160.0149	2
161.1038	1
163.0006	5
164.0106	6
165.0158	1
167.29	1
170.036	2
171.0429	6
171.9514	2
173.022	2
174.0273	1
175.2545	1
176.2788	1
178.5659	2
181.029	1
181.9849	1
184.2573	1
185.0221	1
187.0372	9
188.0434	1
192.8477	1
197.0194	1
198.0299	3
199.0385	6
200.043	3
201.0143	8
202.0484	1
203.0335	1
204.0367	1
211.0348	3
212.037	1
213.0369	1
214.023	3
221.1537	1
227.0332	5
229.0093	3
243.0232	8
244.0296	3
254.0115	1
255.0278	18
256.0334	3
257.036	1
262.0017	1
271.0208	41
272.0289	8
272.3046	1
299.7823	1
299.8478	1
299.9406	1
300.0226	999
300.1946	2
300.278	2
300.4633	3
300.6018	2
300.7392	2
300.9231	2
301.0257	182
301.127	1
301.2063	2
301.3842	1
301.7703	1
301.9647	1
302.0278	7
302.8532	1
314.9432	1
315.0467	145
315.2315	1
315.4079	1
