Mass spectrum: 1-oleoyl-2-hydroxy-sn-glycero-3-phosphoethanolamine; ESI-TOF; MS2; CE: 6.0000000;  [M+H]+
Name: 1-oleoyl-2-hydroxy-sn-glycero-3-phosphoethanolamine
Class: NA
Formula: C23H46NO7P
Exact mass: 479.30119
SMILES: [H]OC([H])(C([H])([H])OC(=O)C([H])([H])C([H])([H])C([H])([H])C([H])([H])C([H])([H])C([H])([H])C([H])([H])C([H])=C([H])C([H])([H])C([H])([H])C([H])([H])C([H])([H])C([H])([H])C([H])([H])C([H])([H])C([H])([H])[H])C([H])([H])OP(=O)([O-])OC([H])([H])C([H])([H])[N+]([H])([H])[H]
InChI: InChI=1S/C23H46NO7P/c1-2-3-4-5-6-7-8-9-10-11-12-13-14-15-16-17-23(26)29-20-22(25)21-31-32(27,28)30-19-18-24/h9-10,22,25H,2-8,11-21,24H2,1H3,(H,27,28)
Instrument: waters xevo g2 TOF
Instrument type: ESI-TOF
Ms type: MS2
Ion mode: POSITIVE
Ionization: ESI
Collision energy: 6.0000000
Column name: Acquity CSHC18
Retention time: 6.603 min
Base peak: 480.30919
Precursor m/z: 480.30919
Precursor type: [M+H]+
m/z	relative intensity
155.0107	1
184.8849	2
192.9586	1
198.0528	3
216.0627	5
259.6323	8
265.2531	3
278.6064	3
308.2956	7
321.2091	1
337.2352	2
339.2899	184
340.2932	42
341.2947	3
401.1737	1
419.2562	31
420.2591	6
457.2026	54
458.2055	13
462.2984	274
463.3015	73
464.3066	11
468.7551	7
473.1761	5
475.2136	24
476.2162	7
477.7625	5
480.3089	999
481.312	277
