Mass spectrum: NORVALINE; LC-ESI-QFT; MS2; CE: 30eV;  [M+H]+
Name: NORVALINE
Class: NA
Formula: C5H11NO2
Exact mass: 117.07898
SMILES: CCC[C@@H](N)C(O)=O
InChI: InChI=1S/C5H11NO2/c1-2-3-4(6)5(7)8/h4H,2-3,6H2,1H3,(H,7,8)/t4-/m1/s1
Instrument: Q-Exactive Orbitrap, Thermo Scientfic; Ultimate 3000 HPLC, Thermo Scientfic
Instrument type: LC-ESI-QFT
Ms type: MS2
Ion mode: POSITIVE
Ionization: ESI
Collision energy: 30eV
Column name: Acquity CSHC18
Retention time: 0.710 min
Base peak: 118.0863
Precursor m/z: 118.0863
Precursor type: [M+H]+
Precursor intensity: 127
m/z	relative intensity
51.9069	5
52.7937	4
55.0162	4
55.0551	30
58.0659	49
58.6167	4
59.0738	57
65.9346	4
70.1476	4
70.2748	4
73.0785	7
73.0848	134
118.0867	999
119.0899	11
