Mass spectrum: 18:0(2R-OH) Ceramide; ESI-TOF; MS2; CE: 6.0000000;  [M+H]+
Name: 18:0(2R-OH) Ceramide
Class: NA
Formula: C36H71NO4
Exact mass: 581.53831
SMILES: [H]OC([H])([H])C([H])(N([H])C(=O)C([H])(O[H])C([H])([H])C([H])([H])C([H])([H])C([H])([H])C([H])([H])C([H])([H])C([H])([H])C([H])([H])C([H])([H])C([H])([H])C([H])([H])C([H])([H])C([H])([H])C([H])([H])C([H])([H])C([H])([H])[H])C([H])(O[H])C([H])=C([H])C([H])([H])C([H])([H])C([H])([H])C([H])([H])C([H])([H])C([H])([H])C([H])([H])C([H])([H])C([H])([H])C([H])([H])C([H])([H])C([H])([H])C([H])([H])[H]
InChI: InChI=1S/C36H71NO4/c1-3-5-7-9-11-13-15-17-19-21-23-25-27-29-31-35(40)36(41)37-33(32-38)34(39)30-28-26-24-22-20-18-16-14-12-10-8-6-4-2/h28,30,33-35,38-40H,3-27,29,31-32H2,1-2H3,(H,37,41)
Instrument: waters xevo g2 TOF
Instrument type: ESI-TOF
Ms type: MS2
Ion mode: POSITIVE
Ionization: ESI
Collision energy: 6.0000000
Column name: Acquity CSHC18
Retention time: 11.066 min
Base peak: 582.54631
Precursor m/z: 582.54631
Precursor type: [M+H]+
m/z	relative intensity
125.9859	25
125.9871	28
286.7392	31
301.7419	24
301.7462	26
310.7504	166
311.2522	48
537.3945	172
544.3738	143
546.5256	15
564.5357	999
565.5392	205
566.5435	58
582.5464	277
583.3849	30
583.5465	111
584.5518	23
588.3828	41
588.3848	122
589.3862	28
601.5204	154
602.0212	126
602.523	54
604.5275	351
605.5319	85
606.5319	22
619.3358	32
647.3599	22
666.4982	144
667.5025	47
892.2916	67
892.7917	86
893.2931	55
893.7972	22
1118.9315	94
1164.0903	37
1165.0831	28
1183.0575	47
1183.5625	74
1184.0648	64
1184.5672	32
1186.0682	656
1187.0712	534
1188.074	215
1189.0767	40
