Mass spectrum: 3,4,5-Trihydroxybenzoic acid; LC-ESI-QTOF; MS2; CE: 15.00;  [M+H]+
Name: 3,4,5-Trihydroxybenzoic acid
Class: NA
Formula: C7H6O5
Exact mass: 170.0215
SMILES: C1=C(C=C(C(=C1O)O)O)C(=O)O
InChI: InChI=1S/C7H6O5/c8-4-1-3(7(11)12)2-5(9)6(4)10/h1-2,8-10H,(H,11,12)
Instrument: Bruker MicrOTOF-Q
Instrument type: LC-ESI-QTOF
Ms type: MS2
Ion mode: POSITIVE
Ionization: ESI
Collision energy: 15.00
Column name: Acquity CSHC18
Retention time: NA
Base peak: 171.0288
Precursor m/z: 171.0288
Precursor type: [M+H]+
m/z	relative intensity
107.0114	146
109.027	58
125.0243	373
126.0224	70
127.0385	129
135.0093	64
136.01	20
153.0173	999
154.0219	72
170.0229	17
