Mass spectrum: N-16:0 L-Serine MeEster; ESI-TOF; MS2; CE: 6.0000000;  [M+H]+
Name: N-16:0 L-Serine MeEster
Class: NA
Formula: C20H39NO4
Exact mass: 357.28791
SMILES: [H]OC([H])([H])C([H])(C(=O)OC([H])([H])[H])N([H])C(=O)C([H])([H])C([H])([H])C([H])([H])C([H])([H])C([H])([H])C([H])([H])C([H])([H])C([H])([H])C([H])([H])C([H])([H])C([H])([H])C([H])([H])C([H])([H])C([H])([H])C([H])([H])[H]
InChI: InChI=1S/C20H39NO4/c1-3-4-5-6-7-8-9-10-11-12-13-14-15-16-19(23)21-18(17-22)20(24)25-2/h18,22H,3-17H2,1-2H3,(H,21,23)
Instrument: waters xevo g2 TOF
Instrument type: ESI-TOF
Ms type: MS2
Ion mode: POSITIVE
Ionization: ESI
Collision energy: 6.0000000
Column name: Acquity CSHC18
Retention time: 7.485 min
Base peak: 358.29591
Precursor m/z: 358.29591
Precursor type: [M+H]+
m/z	relative intensity
60.0457	2
102.0559	24
120.0663	122
121.0693	4
174.6157	1
183.6207	5
189.6189	1
198.626	345
199.1274	78
199.6287	8
200.6227	8
207.631	33
214.6377	5
219.1393	39
239.2373	2
298.2753	5
326.2695	29
327.2733	5
340.2859	63
341.2855	15
358.296	999
359.2998	245
