Mass spectrum: Arachidic acid; LC-ESI-QTOF; MS2; CE: 100;  [M-H]-
Name: Arachidic acid
Class: NA
Formula: C20H40O2
Exact mass: 312.3028
SMILES: CCCCCCCCCCCCCCCCCCCC(=O)O
InChI: InChI=1S/C20H40O2/c1-2-3-4-5-6-7-8-9-10-11-12-13-14-15-16-17-18-19-20(21)22/h2-19H2,1H3,(H,21,22)
Instrument: impact II
Instrument type: LC-ESI-QTOF
Ms type: MS2
Ion mode: NEGATIVE
Ionization: ESI
Collision energy: 100
Column name: Acquity CSHC18
Retention time: 1.871 min
Base peak: 311.2958
Precursor m/z: 311.2958
Precursor type: [M-H]-
m/z	relative intensity
79.9573	999
119.0504	121
