Mass spectrum: INDOLE-3-ACETATE; LC-ESI-QFT; MS2; CE: 30eV;  [M+H]+
Name: INDOLE-3-ACETATE
Class: NA
Formula: C10H9NO2
Exact mass: 175.06333
SMILES: OC(=O)CC1=CNC2=C1C=CC=C2
InChI: InChI=1S/C10H9NO2/c12-10(13)5-7-6-11-9-4-2-1-3-8(7)9/h1-4,6,11H,5H2,(H,12,13)
Instrument: Q-Exactive Orbitrap, Thermo Scientfic; Ultimate 3000 HPLC, Thermo Scientfic
Instrument type: LC-ESI-QFT
Ms type: MS2
Ion mode: POSITIVE
Ionization: ESI
Collision energy: 30eV
Column name: Acquity CSHC18
Retention time: 6.943 min
Base peak: 176.0706
Precursor m/z: 176.0706
Precursor type: [M+H]+
Precursor intensity: 183
m/z	relative intensity
53.4611	2
55.2558	2
61.0845	2
71.5601	2
73.8131	2
74.8082	2
76.5206	2
99.9456	2
101.3326	2
103.0549	4
111.304	2
114.972	12
125.0029	4
130.0654	999
131.064	4
131.0687	49
149.0238	6
149.236	2
153.9567	3
155.5236	3
157.4998	2
176.0708	175
177.0739	12
