Mass spectrum: Glucosamine 6-phosphate; LC-ESI-ITFT; MS2; CE: 10;  [M-H]-
Name: Glucosamine 6-phosphate
Class: Organic oxygen compounds; Organooxygen compounds; Carbohydrates and carbohydrate conjugates
Formula: C6H14NO8P
Exact mass: 259.04570
SMILES: N[C@H]1[C@@H](O)O[C@H](COP(O)(O)=O)[C@@H](O)[C@@H]1O
InChI: InChI=1S/C6H14NO8P/c7-3-5(9)4(8)2(15-6(3)10)1-14-16(11,12)13/h2-6,8-10H,1,7H2,(H2,11,12,13)/t2-,3-,4-,5-,6+/m1/s1
Instrument: Thermo Scientific Q-Exactive Focus
Instrument type: LC-ESI-ITFT
Ms type: MS2
Ion mode: NEGATIVE
Ionization: ESI
Collision energy: 10
Column name: Acquity CSHC18
Retention time: NA
Base peak: 258.03842
Precursor m/z: 258.03842
Precursor type: [M-H]-
m/z	relative intensity
78.9578	268
96.9684	999
183.9124	124
190.0503	72
199.0005	372
211.9871	203
240.0277	241
257.9388	325
258.0383	758
258.1791	109
