Mass spectrum: Caffeoyl malic acid; LC-ESI-ITFT; MS2; CE: 35eV;  [M-H]-
Name: Caffeoyl malic acid
Class: Hydroxycinnamic ester
Formula: C13H12O8
Exact mass: 296.0532
SMILES: C1=CC(=C(C=C1C=CC(=O)OC(CC(=O)O)C(=O)O)O)O
InChI: InChI=1S/C13H12O8/c14-8-3-1-7(5-9(8)15)2-4-12(18)21-10(13(19)20)6-11(16)17/h1-5,10,14-15H,6H2,(H,16,17)(H,19,20)
Instrument: LTQ Orbitrap XL, Thermo Scientfic; Dionex Ultimate 300
Instrument type: LC-ESI-ITFT
Ms type: MS2
Ion mode: NEGATIVE
Ionization: ESI
Collision energy: 35eV
Column name: Lichrospher C18 Column 250*4 5um, Interchim
Retention time: 32.18 min
Base peak: 295.0458
Precursor m/z: 295.0458
Precursor type: [M-H]-
m/z	relative intensity
133.1133	13
164.9954	2
169.2262	9
179.0684	15
206.1982	2
216.0936	1
222.2657	1
223.2099	1
226.1375	4
232.0875	1
234.1163	1
235.1955	1
236.2929	1
248.2501	2
249.1178	3
250.1828	7
251.1508	3
258.2558	1
262.4226	1
267.3166	1
295.0734	999
