Mass spectrum: L-Aspartic acid; LC-ESI-ITFT; MS2; CE: 100;  [M-H]-
Name: L-Aspartic acid
Class: Organic acids and derivatives; Carboxylic acids and derivatives; Amino acids, peptides, and analogues
Formula: C4H7NO4
Exact mass: 133.03751
SMILES: N[C@@H](CC(O)=O)C(O)=O
InChI: InChI=1S/C4H7NO4/c5-2(4(8)9)1-3(6)7/h2H,1,5H2,(H,6,7)(H,8,9)/t2-/m0/s1
Instrument: Thermo Scientific Q-Exactive Focus
Instrument type: LC-ESI-ITFT
Ms type: MS2
Ion mode: NEGATIVE
Ionization: ESI
Collision energy: 100
Column name: Acquity CSHC18
Retention time: 2.582 min
Base peak: 132.03023
Precursor m/z: 132.03023
Precursor type: [M-H]-
m/z	relative intensity
62.7006	871
64.3529	927
76.6646	878
78.1843	985
93.0041	926
96.7682	965
96.8792	937
100.2029	872
136.3016	955
148.7298	999
