Mass spectrum: (22S,25S)-22,26-Epimino-5alpha-cholestan-3beta-16alpha-diol; APCI-ITFT; MS2; CE: 35 CID;  [M+H]+
Name: (22S,25S)-22,26-Epimino-5alpha-cholestan-3beta-16alpha-diol
Class: NA
Formula: C27H47NO2
Exact mass: 417.36068
SMILES: C[C@@]12[C@](CC[C@]3([H])[C@@]([H])2CC[C@@]4(C)[C@@]3([H])C[C@@H](O)[C@]4([H])[C@H](C)[C@@H]5CC[C@H](C)CN5)([H])C[C@@H](O)CC1
InChI: InChI=1S/C27H47NO2/c1-16-5-8-23(28-15-16)17(2)25-24(30)14-22-20-7-6-18-13-19(29)9-11-26(18,3)21(20)10-12-27(22,25)4/h16-25,28-30H,5-15H2,1-4H3/t16-,17+,18-,19-,20+,21-,22-,23-,24+,25-,26-,27-/m0/s1
Instrument: Orbitrap Elite
Instrument type: APCI-ITFT
Ms type: MS2
Ion mode: POSITIVE
Ionization: APCI
Collision energy: 35 CID
Column name: Acquity CSHC18
Retention time: 0.128 min
Base peak: 418.36780
Precursor m/z: 418.36780
Precursor type: [M+H]+
Precursor intensity: 7737650
m/z	relative intensity
121.5942	1
126.128	25
133.1011	2
142.159	3
145.1021	3
147.117	7
149.1326	1
153.6636	1
154.9193	1
159.1158	5
161.1318	20
163.111	1
173.1332	4
173.5197	1
175.1479	2
185.1318	2
187.1476	2
199.1488	3
201.164	2
213.1626	3
215.1786	4
218.4333	1
227.1787	2
241.1951	4
255.2124	58
256.2164	2
257.2254	5
259.2065	2
273.2218	114
274.2252	3
309.2543	1
322.0392	1
333.5397	1
365.3228	3
382.3445	8
399.3477	5
400.3564	999
401.3586	42
418.3374	3
