Mass spectrum: Malondialdehyde; LC-ESI-ITFT; MS2; CE: 20;  [M-H]-
Name: Malondialdehyde
Class: Organic oxygen compounds; Organooxygen compounds; Carbonyl compounds
Formula: C3H4O2
Exact mass: 72.02113
SMILES: O=CCC=O
InChI: InChI=1S/C3H4O2/c4-2-1-3-5/h2-3H,1H2
Instrument: Thermo Scientific Q-Exactive Focus
Instrument type: LC-ESI-ITFT
Ms type: MS2
Ion mode: NEGATIVE
Ionization: ESI
Collision energy: 20
Column name: Acquity CSHC18
Retention time: 0.646 min
Base peak: 71.01385
Precursor m/z: 71.01385
Precursor type: [M-H]-
m/z	relative intensity
53.0022	999
56.2449	5
62.5032	6
68.997	347
69.1866	5
69.2603	5
71.0126	674
82.4514	5
83.7123	4
88.9507	5
