Mass spectrum: 4'-Methyleriodictyol; LC-ESI-QTOF; MS2; CE: 50eV;  [M-H]-
Name: 4'-Methyleriodictyol
Class: Flavanone
Formula: C16H14O6
Exact mass: 302.0790
SMILES: COC1=C(C=C(C=C1)C2CC(=O)C3=C(C=C(C=C3O2)O)O)O
InChI: InChI=1S/C16H14O6/c1-21-13-3-2-8(4-10(13)18)14-7-12(20)16-11(19)5-9(17)6-15(16)22-14/h2-6,14,17-19H,7H2,1H3
Instrument: TIMS-TOF Pro, Bruker Daltonik; Elute UHPLC System, Bruker Daltonik
Instrument type: LC-ESI-QTOF
Ms type: MS2
Ion mode: NEGATIVE
Ionization: ESI
Collision energy: 50eV
Column name: Acquity CSHC18
Retention time: 7.561 min
Base peak: 301.0667
Precursor m/z: 301.0667
Precursor type: [M-H]-
Precursor intensity: 599614.9
m/z	relative intensity
24.2942	1
32.8453	2
39.6816	1
41.0025	15
43.2766	2
48.0777	1
49.0502	2
55.8241	2
57.0334	6
58.2436	1
61.3501	1
63.0224	37
64.0264	2
64.3928	2
65.0029	101
66.0059	8
66.392	1
68.4583	2
70.3128	1
71.2227	2
75.026	2
80.0245	51
80.2447	1
80.4977	1
81.0362	2
82.0042	2
83.0125	108
84.0139	2
85.4246	1
89.001	1
91.0175	1
93.0322	2
94.005	9
95.012	2
96.0198	6
97.649	1
98.9919	1
101.7484	1
105.0333	1
106.0408	7
106.9585	1
107.8164	2
107.9474	2
108.0195	282
108.1211	1
108.2588	1
108.4271	1
108.9852	2
109.5225	3
110.0263	1
111.006	1
112.1936	1
113.5236	2
117.5451	2
119.9212	1
121.0288	7
122.0056	2
123.0073	2
124.0149	11
125.023	19
126.0229	1
127.5319	1
129.032	3
130.0387	1
131.6764	1
133.0278	20
133.9222	2
134.0354	77
134.9826	1
135.0431	77
135.2062	1
136.0316	37
136.2275	1
136.3306	1
136.8373	1
137.0181	4
138.8588	1
140.8297	1
142.3851	2
144.021	2
145.0256	2
146.0337	3
147.405	2
148.9058	2
149.742	2
150.1745	1
150.8109	3
151.0007	98
151.274	2
152.008	5
152.4165	2
153.1415	1
154.0384	2
156.0192	2
157.0273	1
158.0345	9
158.8403	1
160.0169	2
161.0197	3
163.0006	2
163.5062	2
164.0086	132
164.6089	1
165.0117	5
167.0372	1
169.0198	2
171.0408	2
172.0486	2
173.0593	3
174.0252	1
175.0375	6
176.0465	5
177.0165	6
180.6071	2
185.0221	4
187.0372	2
187.6479	1
188.9093	1
191.0674	2
192.8456	2
196.3427	1
197.057	1
198.0276	2
199.0385	15
200.043	16
201.0165	17
201.5108	1
202.0192	3
211.8579	1
214.0599	8
215.0496	8
216.0392	12
217.0485	8
223.0359	1
224.0449	4
226.0578	1
227.0308	5
230.058	3
231.7808	1
233.074	5
240.0386	8
241.0461	11
241.8546	1
242.0533	60
242.2447	1
243.0576	7
244.032	3
247.701	2
255.063	2
257.041	2
257.6101	1
258.0507	29
258.2255	1
259.0521	5
260.053	1
268.0336	4
269.0387	2
271.0182	1
283.0582	13
284.0591	4
285.0353	10
286.0144	79
286.2237	1
286.3491	1
286.4585	1
286.632	2
286.7895	1
287.0459	39
287.2891	1
287.7008	1
288.0512	2
288.3778	1
300.8343	1
300.9847	2
301.0667	999
301.3988	2
301.5567	7
