Mass spectrum: Resveratrol; LC-ESI-ITFT; MS2; CE: 40;  [M-H]-
Name: Resveratrol
Class: Phenylpropanoids and polyketides; Stilbenes
Formula: C14H12O3
Exact mass: 228.07864
SMILES: OC1=CC=C(\C=C\C2=CC(O)=CC(O)=C2)C=C1
InChI: InChI=1S/C14H12O3/c15-12-5-3-10(4-6-12)1-2-11-7-13(16)9-14(17)8-11/h1-9,15-17H/b2-1+
Instrument: Thermo Scientific Q-Exactive Focus
Instrument type: LC-ESI-ITFT
Ms type: MS2
Ion mode: NEGATIVE
Ionization: ESI
Collision energy: 40
Column name: Acquity CSHC18
Retention time: 1.477 min
Base peak: 227.07137
Precursor m/z: 227.07137
Precursor type: [M-H]-
m/z	relative intensity
78.9579	77
86.9926	36
93.0334	46
102.9876	469
115.0542	238
117.0334	182
119.0491	68
126.9039	110
143.0492	999
152.967	31
