Mass spectrum: alpha-Farnesene; LC-ESI-QTOF; MS2; CE: 15.00;  [M+H]+
Name: alpha-Farnesene
Class: NA
Formula: C15H24
Exact mass: 204.1878
SMILES: CC(=CCCC(=CCC=C(C)C=C)C)C
InChI: InChI=1S/C15H24/c1-6-14(4)10-8-12-15(5)11-7-9-13(2)3/h6,9-10,12H,1,7-8,11H2,2-5H3
Instrument: Bruker MicrOTOF-Q
Instrument type: LC-ESI-QTOF
Ms type: MS2
Ion mode: POSITIVE
Ionization: ESI
Collision energy: 15.00
Column name: Acquity CSHC18
Retention time: NA
Base peak: 205.1951
Precursor m/z: 205.1951
Precursor type: [M+H]+
m/z	relative intensity
105.0818	24
107.0833	21
117.0707	17
119.0868	39
121.0984	604
121.9114	22
122.1029	82
123.12	133
135.1154	432
136.1185	54
137.1392	40
148.1161	21
149.1324	999
149.2225	17
150.137	116
163.1514	119
164.1568	47
177.1628	41
179.067	26
189.1751	29
191.034	39
204.1768	47
205.0982	26
205.1945	965
206.1979	110
207.0659	71
334.7874	19
