Mass spectrum: TRYPTOPHAN; LC-ESI-QFT; MS2; CE: 30eV;  [M-H]-
Name: TRYPTOPHAN
Class: NA
Formula: C11H12N2O2
Exact mass: 204.08988
SMILES: N[C@@H](CC1=CNC2=CC=CC=C12)C(O)=O
InChI: InChI=1S/C11H12N2O2/c12-9(11(14)15)5-7-6-13-10-4-2-1-3-8(7)10/h1-4,6,9,13H,5,12H2,(H,14,15)/t9-/m0/s1
Instrument: Q-Exactive Orbitrap, Thermo Scientfic; Ultimate 3000 HPLC, Thermo Scientfic
Instrument type: LC-ESI-QFT
Ms type: MS2
Ion mode: NEGATIVE
Ionization: ESI
Collision energy: 30eV
Column name: Acquity CSHC18
Retention time: 2.801 min
Base peak: 203.0826
Precursor m/z: 203.0826
Precursor type: [M-H]-
Precursor intensity: 178
m/z	relative intensity
53.64	10
65.7667	13
72.0074	71
74.0231	679
82.6846	13
82.6964	15
87.1514	12
90.3059	14
104.9758	73
114.9478	16
116.049	999
117.0524	73
123.8764	66
129.0574	18
130.0648	17
139.392	13
139.566	14
142.0647	275
158.4599	13
159.0914	303
166.832	59
173.9297	15
182.5807	14
186.0547	70
186.9729	18
202.9402	181
203.0817	657
203.7983	27
204.0855	111
214.0352	17
