Mass spectrum: 3-Methoxytyramine; LC-ESI-ITFT; MS2; CE: 40;  [M+H]+
Name: 3-Methoxytyramine
Class: Benzenoids; Phenols; Methoxyphenols
Formula: C9H13NO2
Exact mass: 167.09463
SMILES: COC1=C(O)C=CC(CCN)=C1
InChI: InChI=1S/C9H13NO2/c1-12-9-6-7(4-5-10)2-3-8(9)11/h2-3,6,11H,4-5,10H2,1H3
Instrument: Thermo Scientific Q-Exactive Focus
Instrument type: LC-ESI-ITFT
Ms type: MS2
Ion mode: POSITIVE
Ionization: ESI
Collision energy: 40
Column name: Acquity CSHC18
Retention time: 1.463 min
Base peak: 168.10191
Precursor m/z: 168.10191
Precursor type: [M+H]+
m/z	relative intensity
53.0392	22
63.0235	29
65.0391	999
79.0547	221
80.0625	37
89.0389	10
90.0468	25
91.0546	982
95.0495	70
107.0494	68
