Mass spectrum: GTP; LC-ESI-QTOF; MS2; CE: 100;  [M+H]+
Name: GTP
Class: NA
Formula: C10H16N5O14P3
Exact mass: 522.99066
SMILES: C1=NC2=C(N1C3C(C(C(O3)COP(=O)(O)OP(=O)(O)OP(=O)(O)O)O)O)N=C(NC2=O)N
InChI: InChI=1S/C10H16N5O14P3/c11-10-13-7-4(8(18)14-10)12-2-15(7)9-6(17)5(16)3(27-9)1-26-31(22,23)29-32(24,25)28-30(19,20)21/h2-3,5-6,9,16-17H,1H2,(H,22,23)(H,24,25)(H2,19,20,21)(H3,11,13,14,18)
Instrument: impact II
Instrument type: LC-ESI-QTOF
Ms type: MS2
Ion mode: POSITIVE
Ionization: ESI
Collision energy: 100
Column name: Acquity CSHC18
Retention time: 1.902 min
Base peak: 523.99910
Precursor m/z: 523.99910
Precursor type: [M+H]+
m/z	relative intensity
45.0337	910
107.0353	112
110.0349	493
128.0448	145
135.0299	999
152.0567	542
153.0407	813
