Mass spectrum: Fumaric acid; LC-ESI-QTOF; MS2; CE: 15.00;  [M+H]+
Name: Fumaric acid
Class: NA
Formula: C4H4O4
Exact mass: 116.0110
SMILES: C(=CC(=O)O)C(=O)O
InChI: InChI=1S/C4H4O4/c5-3(6)1-2-4(7)8/h1-2H,(H,5,6)(H,7,8)
Instrument: Bruker MicrOTOF-Q
Instrument type: LC-ESI-QTOF
Ms type: MS2
Ion mode: POSITIVE
Ionization: ESI
Collision energy: 15.00
Column name: Acquity CSHC18
Retention time: NA
Base peak: 117.0182
Precursor m/z: 117.0182
Precursor type: [M+H]+
m/z	relative intensity
99	999
100.01	48
117.02	221
191.55	58
