Mass spectrum: 2-Nitrophenol; LC-ESI-ITFT; MS2; CE: 100;  [M-H]-
Name: 2-Nitrophenol
Class: NA
Formula: C6H5NO3
Exact mass: 139.02694
SMILES: C1=CC=C(C(=C1)[N+](=O)[O-])O
InChI: InChI=1S/C6H5NO3/c8-6-4-2-1-3-5(6)7(9)10/h1-4,8H
Instrument: Thermo Scientific Q-Exactive Focus
Instrument type: LC-ESI-ITFT
Ms type: MS2
Ion mode: NEGATIVE
Ionization: ESI
Collision energy: 100
Column name: Acquity CSHC18
Retention time: 2.586 min
Base peak: 138.01967
Precursor m/z: 138.01967
Precursor type: [M-H]-
m/z	relative intensity
50.6231	888
62.5994	873
87.2891	999
94.8731	847
96.8265	839
108.0504	851
110.7271	901
110.885	903
118.2474	834
148.0537	839
