Mass spectrum: Umbelliferone; LC-ESI-ITFT; MS2; CE: 30;  [M-H]-
Name: Umbelliferone
Class: Phenylpropanoids and polyketides; Coumarins and derivatives; Hydroxycoumarins
Formula: C9H6O3
Exact mass: 162.03169
SMILES: OC1=CC2=C(C=C1)C=CC(=O)O2
InChI: InChI=1S/C9H6O3/c10-7-3-1-6-2-4-9(11)12-8(6)5-7/h1-5,10H
Instrument: Thermo Scientific Q-Exactive Focus
Instrument type: LC-ESI-ITFT
Ms type: MS2
Ion mode: NEGATIVE
Ionization: ESI
Collision energy: 30
Column name: Acquity CSHC18
Retention time: 0.932 min
Base peak: 161.02441
Precursor m/z: 161.02441
Precursor type: [M-H]-
m/z	relative intensity
65.0021	463
77.0384	140
89.0384	663
91.0177	48
95.049	723
105.0334	179
117.0334	190
123.044	741
133.0284	999
161.0234	353
