Mass spectrum: Carnosine; LC-ESI-ITFT; MS2; CE: 40;  [M-H]-
Name: Carnosine
Class: Organic acids and derivatives; Peptidomimetics; Hybrid peptides
Formula: C9H14N4O3
Exact mass: 226.10659
SMILES: NCCC(=O)N[C@@H](CC1=CN=CN1)C(O)=O
InChI: InChI=1S/C9H14N4O3/c10-2-1-8(14)13-7(9(15)16)3-6-4-11-5-12-6/h4-5,7H,1-3,10H2,(H,11,12)(H,13,14)(H,15,16)/t7-/m0/s1
Instrument: Thermo Scientific Q-Exactive Focus
Instrument type: LC-ESI-ITFT
Ms type: MS2
Ion mode: NEGATIVE
Ionization: ESI
Collision energy: 40
Column name: Acquity CSHC18
Retention time: 1.477 min
Base peak: 225.09930
Precursor m/z: 225.09930
Precursor type: [M-H]-
m/z	relative intensity
58.0287	380
67.029	89
70.0286	58
80.0368	565
81.0446	819
93.0446	410
110.0713	999
126.904	87
137.0346	53
152.967	70
