Mass spectrum: Ribitol; LC-ESI-ITFT; MS2; CE: 10;  [M-H]-
Name: Ribitol
Class: Organic oxygen compounds; Organooxygen compounds; Carbohydrates and carbohydrate conjugates
Formula: C5H12O5
Exact mass: 152.06847
SMILES: OC[C@H](O)[C@H](O)[C@H](O)CO
InChI: InChI=1S/C5H12O5/c6-1-3(8)5(10)4(9)2-7/h3-10H,1-2H2/t3-,4+,5-
Instrument: Thermo Scientific Q-Exactive Focus
Instrument type: LC-ESI-ITFT
Ms type: MS2
Ion mode: NEGATIVE
Ionization: ESI
Collision energy: 10
Column name: Acquity CSHC18
Retention time: 0.360 min
Base peak: 151.06120
Precursor m/z: 151.06120
Precursor type: [M-H]-
m/z	relative intensity
59.0127	450
71.0126	797
73.0283	82
83.0127	65
85.0283	80
89.0232	841
101.0233	999
113.0233	49
119.0338	129
151.0602	394
