Mass spectrum: Ellagic acid; ESI-TOF; MS2; CE: 6.0000000;  [M+H]+
Name: Ellagic acid
Class: NA
Formula: C14H6O8
Exact mass: 302.00627
SMILES: OC1=C(O)C2=C3C(=C1)C(=O)OC1=C3C(=CC(O)=C1O)C(=O)O2
InChI: InChI=1S/C14H6O8/c15-5-1-3-7-8-4(14(20)22-11(7)9(5)17)2-6(16)10(18)12(8)21-13(3)19/h1-2,15-18H
Instrument: waters xevo g2 TOF
Instrument type: ESI-TOF
Ms type: MS2
Ion mode: POSITIVE
Ionization: ESI
Collision energy: 6.0000000
Column name: Acquity CSHC18
Retention time: 2.245 min
Base peak: 303.01427
Precursor m/z: 303.01427
Precursor type: [M+H]+
m/z	relative intensity
89.0244	28
113.0953	34
124.9585	13
132.0059	27
142.1241	15
183.1943	18
186.2224	81
195.0983	15
214.0699	103
222.9595	45
258.1033	143
261.0042	110
277.0842	49
285.0831	131
301.0628	237
303.0134	999
304.0176	347
