Mass spectrum: C17:1 anandamide; ESI-TOF; MS2; CE: 6.0000000;  [M+H]+
Name: C17:1 anandamide
Class: NA
Formula: C19H37NO2
Exact mass: 311.28243
SMILES: [H]OC([H])([H])C([H])([H])N([H])C(=O)C([H])([H])C([H])([H])C([H])([H])C([H])([H])C([H])([H])C([H])([H])C([H])([H])C([H])([H])C([H])=C([H])C([H])([H])C([H])([H])C([H])([H])C([H])([H])C([H])([H])C([H])([H])[H]
InChI: InChI=1S/C19H37NO2/c1-2-3-4-5-6-7-8-9-10-11-12-13-14-15-16-19(22)20-17-18-21/h7-8,21H,2-6,9-18H2,1H3,(H,20,22)
Instrument: waters xevo g2 TOF
Instrument type: ESI-TOF
Ms type: MS2
Ion mode: POSITIVE
Ionization: ESI
Collision energy: 6.0000000
Column name: Acquity CSHC18
Retention time: 7.124 min
Base peak: 312.29043
Precursor m/z: 312.29043
Precursor type: [M+H]+
m/z	relative intensity
175.6228	48
176.1248	9
176.6257	1
177.6172	1
184.6284	5
196.1354	3
233.2268	4
251.237	10
294.2798	18
295.2654	48
296.2681	9
297.2706	1
312.4106	999
313.2936	431
314.2969	58
315.2993	5
331.2639	88
331.7657	21
332.2668	4
332.765	1
333.2598	1
334.2728	644
335.2753	147
336.2782	18
350.2388	5
365.2066	4
366.2092	4
367.2114	1
368.2104	3
380.2626	1
396.2426	22
397.2438	4
398.2433	1
411.2058	1
478.9168	3
479.4194	2
479.9192	1
486.9048	160
487.4068	105
487.9077	38
488.4106	9
488.9015	6
489.4021	2
494.8915	2
495.3936	1
495.8923	7
496.3936	4
496.8939	4
497.3877	2
578.4459	1
623.5741	20
624.5766	8
625.5796	2
629.5824	6
642.5459	47
643.0491	40
643.5496	18
644.0486	5
644.5458	2
645.549	69
646.559	31
647.5456	8
651.5366	2
652.5353	1
667.537	1
669.0039	2
669.5047	4
670.0072	1
676.4847	14
677.488	15
678.4941	6
679.4925	9
680.4979	3
681.4903	4
682.496	1
697.4952	1
707.5254	58
708.5277	26
709.5333	2
710.5322	1
779.4404	1
793.4689	2
794.4716	1
1018.8079	3
1019.8096	2
