Mass spectrum: PTERIN; LC-ESI-QTOF; MS2; CE: 10;  [M+H]+
Name: PTERIN
Class: NA
Formula: C6H5N5O
Exact mass: 163.04941
SMILES: NC1=NC2=NC=CN=C2C(=O)N1
InChI: InChI=1S/C6H5N5O/c7-6-10-4-3(5(12)11-6)8-1-2-9-4/h1-2H,(H3,7,9,10,11,12)
Instrument: Agilent 6530Â Q-TOF LC/MS
Instrument type: LC-ESI-QTOF
Ms type: MS2
Ion mode: POSITIVE
Ionization: ESI
Collision energy: 10
Column name: NA
Retention time: 0.200 min
Base peak: 164.05370
Precursor m/z: 164.05370
Precursor type: [M+H]+
Precursor intensity: 62.5
m/z	relative intensity
45.0256	85
45.0294	122
45.0332	116
45.0371	97
45.0409	79
45.0448	63
92.0114	67
92.0169	74
92.0224	62
94.0289	84
94.0344	107
94.04	95
94.0456	75
94.0511	62
119.0118	104
119.0181	393
119.0243	659
119.0306	692
119.0368	576
119.0431	457
119.0493	361
119.0556	276
119.0618	209
119.0681	163
119.0743	129
119.0806	97
119.0868	74
119.0931	55
121.0272	79
121.0335	218
121.0398	299
121.0462	286
121.0525	232
121.0588	177
121.0651	139
121.0714	112
121.0777	79
121.084	62
122.0191	87
122.0255	100
122.0318	85
122.0381	71
122.0445	58
147.0113	119
147.0183	232
147.0252	263
147.0322	235
147.0392	180
147.0461	128
147.0531	94
147.06	74
147.0669	61
164.0295	122
164.0368	557
164.0442	951
164.0515	999
164.0588	826
164.0662	643
164.0735	485
164.0809	370
164.0882	283
164.0956	227
164.1029	220
164.1102	218
164.1176	214
164.1249	199
164.1323	165
164.1396	134
164.1469	105
164.1543	74
164.1616	63
