Mass spectrum: L-Tyrosine; ESI-TOF; MS2; CE: 0.6458333;  [M+H]+
Name: L-Tyrosine
Class: NA
Formula: C9H11NO3
Exact mass: 181.07389
SMILES: NC(CC1=CC=C(O)C=C1)C(O)=O
InChI: InChI=1S/C9H11NO3/c10-8(9(12)13)5-6-1-3-7(11)4-2-6/h1-4,8,11H,5,10H2,(H,12,13)
Instrument: waters xevo g2 TOF
Instrument type: ESI-TOF
Ms type: MS2
Ion mode: POSITIVE
Ionization: ESI
Collision energy: 0.6458333
Column name: Acquity CSHC18
Retention time: 0.581 min
Base peak: 182.08189
Precursor m/z: 182.08189
Precursor type: [M+H]+
m/z	relative intensity
65.0404	15
77.0397	182
91.0553	999
92.0589	79
94.0425	7
95.0499	660
96.0534	47
97.9698	164
103.0549	35
107.05	76
114.9588	3
119.0499	709
120.0535	52
123.0449	663
124.0479	37
133.9277	7
136.0764	345
138.99	1
147.0449	89
163.9934	7
165.0553	22
182.0817	36
191.014	16
204.0637	8
