Mass spectrum: 8-iso-16-cyclohexyl-tetranor Prostaglandin E2; ESI-TOF; MS2; CE: 0.6458333;  [M+H]+
Name: 8-iso-16-cyclohexyl-tetranor Prostaglandin E2
Class: NA
Formula: C22H34O5
Exact mass: 378.24062
SMILES: OC(=O)CCC/C=C\C[C@@H]1C(=O)CC(O)[C@@H]1\C=C\C(O)CC1CCCCC1
InChI: InChI=1S/C22H34O5/c23-17(14-16-8-4-3-5-9-16)12-13-19-18(20(24)15-21(19)25)10-6-1-2-7-11-22(26)27/h1,6,12-13,16-19,21,23,25H,2-5,7-11,14-15H2,(H,26,27)/b6-1-,13-12+/t17?,18-,19+,21?/m0/s1
Instrument: waters xevo g2 TOF
Instrument type: ESI-TOF
Ms type: MS2
Ion mode: POSITIVE
Ionization: ESI
Collision energy: 0.6458333
Column name: Acquity CSHC18
Retention time: 3.771 min
Base peak: 379.24862
Precursor m/z: 379.24862
Precursor type: [M+H]+
m/z	relative intensity
97.1019	225
121.1021	558
125.0985	162
133.1023	463
135.0812	68
149.0973	118
155.0854	210
159.1183	386
163.1156	70
183.1168	488
184.1218	61
197.1022	203
201.1427	383
202.1304	39
203.1092	96
206.0031	113
207.114	107
211.1127	262
221.1454	65
222.0506	37
225.1286	234
229.122	320
235.1419	38
271.2039	154
279.2109	146
281.1901	146
307.2064	471
315.2299	55
325.2174	999
326.2191	58
329.1802	128
330.1867	40
343.2278	504
344.1402	60
362.2432	21
380.2104	319
