Mass spectrum: 2-Hydroxybutyric acid; LC-ESI-ITFT; MS2; CE: 30;  [M-H]-
Name: 2-Hydroxybutyric acid
Class: Organic acids and derivatives; Hydroxy acids and derivatives; Alpha hydroxy acids and derivatives
Formula: C4H8O3
Exact mass: 104.04734
SMILES: CCC(O)C(O)=O
InChI: InChI=1S/C4H8O3/c1-2-3(5)4(6)7/h3,5H,2H2,1H3,(H,6,7)
Instrument: Thermo Scientific Q-Exactive Focus
Instrument type: LC-ESI-ITFT
Ms type: MS2
Ion mode: NEGATIVE
Ionization: ESI
Collision energy: 30
Column name: Acquity CSHC18
Retention time: 0.932 min
Base peak: 103.04007
Precursor m/z: 103.04007
Precursor type: [M-H]-
m/z	relative intensity
54.0059	80
55.0177	145
57.0334	999
58.1421	76
69.9414	80
70.0927	88
70.3954	80
81.7784	86
82.4487	82
124.9647	86
