Mass spectrum: 5'-DEOXYADENOSINE; LC-ESI-QTOF; MS2; CE: 40;  [M+H]+
Name: 5'-DEOXYADENOSINE
Class: NA
Formula: C10H13N5O3
Exact mass: 251.1018
SMILES: C[C@H]1O[C@H]([C@H](O)[C@@H]1O)N1C=NC2=C(N)N=CN=C12
InChI: InChI=1S/C10H13N5O3/c1-4-6(16)7(17)10(18-4)15-3-14-5-8(11)12-2-13-9(5)15/h2-4,6-7,10,16-17H,1H3,(H2,11,12,13)/t4-,6-,7-,10-/m1/s1
Instrument: Agilent 6530Â Q-TOF LC/MS
Instrument type: LC-ESI-QTOF
Ms type: MS2
Ion mode: POSITIVE
Ionization: ESI
Collision energy: 40
Column name: NA
Retention time: 0.200 min
Base peak: 252.10966
Precursor m/z: 252.10966
Precursor type: [M+H]+
Precursor intensity: 70.5
m/z	relative intensity
43.0286	19
45.0334	34
65.0114	39
67.028	39
73.0274	46
92.0231	70
94.0382	74
109.0472	112
119.0328	459
136.0587	999
