Mass spectrum: Daidzin; LC-ESI-QTOF; MS2; CE: 27.08;  [M+HCOOH-H]-
Name: Daidzin
Class: NA
Formula: C21H20O9
Exact mass: 416.1107
SMILES: C1=CC(=CC=C1C2=COC3=C(C2=O)C=CC(=C3)OC4C(C(C(C(O4)CO)O)O)O)O
InChI: InChI=1S/C21H20O9/c22-8-16-18(25)19(26)20(27)21(30-16)29-12-5-6-13-15(7-12)28-9-14(17(13)24)10-1-3-11(23)4-2-10/h1-7,9,16,18-23,25-27H,8H2
Instrument: Bruker MicrOTOF-Q
Instrument type: LC-ESI-QTOF
Ms type: MS2
Ion mode: NEGATIVE
Ionization: ESI
Collision energy: 27.08
Column name: Acquity CSHC18
Retention time: NA
Base peak: 461.1089
Precursor m/z: 461.1089
Precursor type: [M+HCOOH-H]-
m/z	relative intensity
195.0455	36
196.0507	15
197.0615	9
208.0525	41
209.0613	25
210.0453	2
211.0405	4
221.057	2
223.0402	124
224.0471	94
225.054	37
226.0607	5
237.0567	19
238.0598	4
249.0566	3
251.0362	100
252.1467	999
253.8738	965
255.0569	198
256.0607	19
265.0504	6
266.0588	7
267.0666	26
268.0706	5
275.0722	10
277.0537	3
281.0461	4
295.0621	83
296.0638	14
297.0672	3
307.0607	5
319.0631	5
325.0709	25
326.07	2
415.1046	637
416.1078	161
417.1085	25
418.1141	3
