Mass spectrum: luteolin; LC-ESI-ITFT; MS2; CE: 0.3;  [M-H]-
Name: luteolin
Class: flavones
Formula: C15H10O6
Exact mass: 286.0477
SMILES: C1=CC(=C(C=C1C2=CC(=O)C3=C(C=C(C=C3O2)O)O)O)O
InChI: InChI=1S/C15H10O6/c16-8-4-11(19)15-12(20)6-13(21-14(15)5-8)7-1-2-9(17)10(18)3-7/h1-6,16-19H
Instrument: LTQ-Orbitrap XL hybrid mass spectrometer (Thermo Scientific)
Instrument type: LC-ESI-ITFT
Ms type: MS2
Ion mode: NEGATIVE
Ionization: ESI
Collision energy: 0.3
Column name: Acquity CSHC18
Retention time: 7.334 min
Base peak: 285.0399
Precursor m/z: 285.0399
Precursor type: [M-H]-
Precursor intensity: 22111520
m/z	relative intensity
78.4351	8
83.7786	7
88.3395	7
90.1916	7
94.0495	7
95.2264	8
105.9765	7
112.1306	7
121.9325	9
128.6578	8
133.0295	23
136.9549	8
138.5178	7
138.8235	9
149.0241	23
149.4478	9
151.0038	103
155.1922	8
155.5132	7
157.4531	7
157.4621	7
158.7382	8
169.0657	15
171.0449	17
172.4266	7
173.0602	13
174.9727	7
175.0401	273
175.9722	8
178.0506	8
185.0616	12
187.5673	10
188.9043	8
190.5702	9
192.3085	9
197.0604	65
197.3047	9
198.0321	33
198.7772	9
199.0398	251
201.0192	54
202.1521	9
204.5467	8
209.3234	9
212.8964	9
213.0551	59
215.0346	16
217.0501	189
217.4199	9
223.04	35
224.2866	7
226.0247	16
229.0509	15
229.5391	9
232.225	8
239.0356	14
241.0501	320
242.0225	18
242.8857	8
242.8939	8
243.0292	182
243.3306	10
247.3307	9
250.5015	10
257.0453	48
258.7289	10
267.029	37
275.3121	10
281.8484	9
282.6128	10
285.0398	999
