Mass spectrum: L-Proline; LC-ESI-QTOF; MS2; CE: 15.00;  [M-H]-
Name: L-Proline
Class: NA
Formula: C5H9NO2
Exact mass: 115.0633
SMILES: C1CC(NC1)C(=O)O
InChI: InChI=1S/C5H9NO2/c7-5(8)4-2-1-3-6-4/h4,6H,1-3H2,(H,7,8)
Instrument: Bruker MicrOTOF-Q
Instrument type: LC-ESI-QTOF
Ms type: MS2
Ion mode: NEGATIVE
Ionization: ESI
Collision energy: 15.00
Column name: Acquity CSHC18
Retention time: NA
Base peak: 114.0561
Precursor m/z: 114.0561
Precursor type: [M-H]-
m/z	relative intensity
63.9313	210
92.4728	169
114.0553	999
119.1143	122
121.064	163
124.12	158
143.1553	158
166.6437	107
180.375	174
190.0578	133
238.5683	112
260.8014	107
286.8657	107
334.9685	117
336.7949	107
338.0849	143
342.2717	138
342.721	107
345.6289	220
368.1216	107
402.438	122
425.1929	128
430.1415	128
451.2248	122
478.3289	128
510.3373	133
558.093	112
559.8222	179
590.1184	122
598.4792	184
599.3031	128
614.9092	112
639.0116	148
643.9131	169
676.9397	117
680.7568	158
682.5957	122
826.5802	199
828.758	138
891.1762	153
896.7263	148
912.765	122
956.784	133
972.6191	138
986.5316	107
993.8662	169
