Mass spectrum: Glucoraphanin; LC-ESI-QTOF; MS2; CE: 25.2;  [M-H]-
Name: Glucoraphanin
Class: NA
Formula: C12H23NO10S3
Exact mass: 437.0484
SMILES: CS(=O)CCCCC(=NOS(=O)(=O)O)SC1C(C(C(C(O1)CO)O)O)O
InChI: InChI=1S/C12H23NO10S3/c1-25(18)5-3-2-4-8(13-23-26(19,20)21)24-12-11(17)10(16)9(15)7(6-14)22-12/h7,9-12,14-17H,2-6H2,1H3,(H,19,20,21)
Instrument: Bruker MicrOTOF-Q
Instrument type: LC-ESI-QTOF
Ms type: MS2
Ion mode: NEGATIVE
Ionization: ESI
Collision energy: 25.2
Column name: Acquity CSHC18
Retention time: NA
Base peak: 436.0411
Precursor m/z: 436.0411
Precursor type: [M-H]-
m/z	relative intensity
79.9525	8
95.9519	999
96.9118	252
97.9509	63
98.9572	68
101.0249	6
111.9288	10
113.022	3
127.9244	25
128.9318	18
130.0326	61
131.0362	5
138.9708	62
145.0503	14
146.0272	26
161.0119	4
162.0214	4
163.0585	8
168.98	9
176.0034	13
177.0127	17
178.14	521
179.0184	122
180.0153	77
181.0092	4
194.0296	133
195.0321	69
196.0289	17
197.0297	3
198.9903	11
209.9892	51
210.9953	5
211.985	5
224.9768	16
225.984	132
227.0189	27
227.9828	12
239.9982	10
241.0014	42
242.9824	117
243.9842	8
244.9784	12
258.0086	8
259.0122	471
260.0158	34
261.0103	26
274.9899	274
275.9928	25
276.9855	25
290.9862	9
292.0858	15
341.0612	4
356.0805	8
372.0416	386
373.0448	51
374.0411	39
375.0391	4
391.0192	6
404.0149	6
421.0164	137
422.0164	15
423.0128	23
436.04	39
437.0417	8
438.0352	8
