Mass spectrum: Salicylic acid; LC-ESI-QTOF; MS2; CE: 15.00;  [M-H]-
Name: Salicylic acid
Class: NA
Formula: C7H6O3
Exact mass: 138.0317
SMILES: C1=CC=C(C(=C1)C(=O)O)O
InChI: InChI=1S/C7H6O3/c8-6-4-2-1-3-5(6)7(9)10/h1-4,8H,(H,9,10)
Instrument: Bruker MicrOTOF-Q
Instrument type: LC-ESI-QTOF
Ms type: MS2
Ion mode: NEGATIVE
Ionization: ESI
Collision energy: 15.00
Column name: Acquity CSHC18
Retention time: NA
Base peak: 137.0244
Precursor m/z: 137.0244
Precursor type: [M-H]-
m/z	relative intensity
46.228	47
49.275	62
50.07	41
51.075	65
52.22	41
53.14	55
53.72	55
54.4	69
55.4725	69
56.11	55
56.8667	55
58.1367	71
59.22	41
59.73	55
61.0367	36
62.47	64
63.44	60
64.335	76
65.07	41
65.78	41
66.89	55
67.69	60
70.3314	49
73.305	69
76.5175	51
77.36	69
78.69	41
79.17	69
79.8367	64
80.46	55
81.46	60
82.2533	64
83.23	55
83.73	55
85.13	55
85.9375	55
86.88	62
88.125	55
90.01	69
90.66	69
91.5	41
93.26	999
95.03	69
95.92	41
99.24	41
103.11	41
106.3	55
135.4	41
136.32	55
137.03	554
150.23	41
189.68	55
191.8	41
218.15	27
258.15	41
272.43	69
281.09	41
299.85	55
314.54	41
316.21	41
357.22	41
428.95	41
440.57	41
485.63	41
498.61	27
526.24	55
531.95	41
562.07	41
575.44	41
579.3	27
608.33	55
673.23	55
685.58	41
694.19	41
703.14	55
729.16	41
757.18	27
810.61	27
831.41	41
989.22	41
1002.4	41
