Mass spectrum: Adenine; LC-ESI-ITFT; MS2; CE: 60;  [M+H]+
Name: Adenine
Class: Organoheterocyclic compounds; Imidazopyrimidines; Purines and purine derivatives
Formula: C5H5N5
Exact mass: 135.05450
SMILES: NC1=C2NC=NC2=NC=N1
InChI: InChI=1S/C5H5N5/c6-4-3-5(9-1-7-3)10-2-8-4/h1-2H,(H3,6,7,8,9,10)
Instrument: Thermo Scientific Q-Exactive Focus
Instrument type: LC-ESI-ITFT
Ms type: MS2
Ion mode: POSITIVE
Ionization: ESI
Collision energy: 60
Column name: Acquity CSHC18
Retention time: NA
Base peak: 136.06177
Precursor m/z: 136.06177
Precursor type: [M+H]+
m/z	relative intensity
53.998	866
55.0296	163
65.0139	999
66.0217	115
67.0295	145
77.0138	213
91.7232	54
92.0245	84
96.1153	42
152.296	43
