Mass spectrum: 5,4'-dihydroxy-7-methoxyisoflavone; LC-ESI-QTOF; MS2; CE: 15;  [M-H]-
Name: 5,4'-dihydroxy-7-methoxyisoflavone
Class: NA
Formula: C16H12O5
Exact mass: 284.0685
SMILES: COC1=CC(=C2C(=C1)OC=C(C2=O)C3=CC=C(C=C3)O)O
InChI: InChI=1S/C16H12O5/c1-20-11-6-13(18)15-14(7-11)21-8-12(16(15)19)9-2-4-10(17)5-3-9/h2-8,17-18H,1H3
Instrument: Bruker MicrOTOF-Q
Instrument type: LC-ESI-QTOF
Ms type: MS2
Ion mode: NEGATIVE
Ionization: ESI
Collision energy: 15
Column name: Acquity CSHC18
Retention time: NA
Base peak: 283.0612
Precursor m/z: 283.0612
Precursor type: [M-H]-
m/z	relative intensity
45.5644	7
49.8357	8
54.0544	7
60.4445	8
71.0611	8
76.6085	9
77.6414	9
83.1318	9
100.9598	9
120.4098	10
192.8732	26
264.6203	145
275.1819	999
287.2882	468
293.0007	7
293.7762	5
294.6298	5
296.1167	9
296.6568	5
297.5877	4
298.3545	5
298.9952	7
300.835	5
302.8986	5
303.5532	5
304.0815	8
305.5321	8
306.7446	10
307.3876	11
308.0052	6
309.3023	10
309.7096	11
310.8559	10
314.3646	8
316.0126	8
317.7757	6
319.1565	8
320.438	4
322.4705	5
323.546	8
325.0987	7
328.3838	10
329.2164	10
329.9486	11
330.4183	5
331.3518	10
332.4727	6
333.5478	11
333.9808	5
335.5153	8
336.5335	8
337.4532	13
340.1586	10
342.4964	10
347.3107	9
349.9281	9
352.935	13
354.0597	9
354.9481	10
356.3471	6
358.9533	7
361.6643	7
367.8433	9
368.9171	10
372.7684	11
374.2171	11
375.2794	8
376.3691	8
376.7968	8
377.2172	7
377.9944	11
378.482	10
379.2597	9
380.0593	10
381.0161	10
385.8532	5
388.2018	10
389.578	9
390.1839	12
391.7374	5
392.5823	9
393.6814	8
400.9144	8
401.4055	10
401.8546	13
405.1078	9
413.7158	8
416.9936	8
421.9002	9
423.3993	5
425.5136	11
430.1336	6
432.7545	5
436.1195	9
444.8693	8
445.2889	9
445.9194	8
453.3417	7
457.3262	9
459.5987	5
464.3231	6
465.1353	7
467.242	13
473.5709	8
477.2533	8
484.1908	20
486.4167	7
489.5875	9
490.8366	9
495.4434	4
498.952	10
500.9693	5
511.9154	7
515.9513	8
519.493	5
523.3816	9
526.4478	5
536.6002	10
538.9979	7
544.4398	5
556.7023	7
561.1156	6
570.219	7
573.6237	13
583.8517	5
589.0671	10
591.014	6
598.0339	8
600.9243	6
604.2445	9
608.8659	10
611.1116	5
611.9247	5
618.7328	5
619.9413	7
625.2702	5
631.4488	8
634.0898	6
650.375	5
667.5017	6
675.7055	7
679.5177	10
699.3414	9
718.1638	9
734.0423	9
738.3568	5
739.0191	7
763.4712	7
796.579	5
823.9381	7
885.0947	11
917.3101	5
986.2199	6
