Mass spectrum: 3-Phenoxybenzoic acid; LC-ESI-ITFT; MS2; CE: 10;  [M-H]-
Name: 3-Phenoxybenzoic acid
Class: Benzenoids; Benzene and substituted derivatives; Diphenylethers
Formula: C13H10O3
Exact mass: 214.06299
SMILES: OC(=O)C1=CC(OC2=CC=CC=C2)=CC=C1
InChI: InChI=1S/C13H10O3/c14-13(15)10-5-4-8-12(9-10)16-11-6-2-1-3-7-11/h1-9H,(H,14,15)
Instrument: Thermo Scientific Q-Exactive Focus
Instrument type: LC-ESI-ITFT
Ms type: MS2
Ion mode: NEGATIVE
Ionization: ESI
Collision energy: 10
Column name: Acquity CSHC18
Retention time: 0.360 min
Base peak: 213.05573
Precursor m/z: 213.05573
Precursor type: [M-H]-
m/z	relative intensity
78.9446	1
93.0334	999
96.4407	1
98.631	1
167.0493	12
168.9885	15
169.065	830
197.9912	11
213.0148	12
213.0552	824
