Mass spectrum: Epigallocatechin; LC-ESI-ITFT; MS2; CE: 0.3;  [M-H]-
Name: Epigallocatechin
Class: flavanoles
Formula: C15H14O7
Exact mass: 306.0740
SMILES: C1C(C(OC2=CC(=CC(=C21)O)O)C3=CC(=C(C(=C3)O)O)O)O
InChI: InChI=1S/C15H14O7/c16-7-3-9(17)8-5-12(20)15(22-13(8)4-7)6-1-10(18)14(21)11(19)2-6/h1-4,12,15-21H,5H2
Instrument: LTQ-Orbitrap XL hybrid mass spectrometer (Thermo Scientific)
Instrument type: LC-ESI-ITFT
Ms type: MS2
Ion mode: NEGATIVE
Ionization: ESI
Collision energy: 0.3
Column name: Acquity CSHC18
Retention time: 3.155 min
Base peak: 305.0669
Precursor m/z: 305.0669
Precursor type: [M-H]-
Precursor intensity: 3733603
m/z	relative intensity
70.915	5
71.1984	6
71.7768	10
72.268	6
72.7959	5
73.4107	6
73.9095	5
74.6669	6
76.3288	8
81.0564	7
109.03	10
125.025	255
134.4597	4
135.0454	18
137.025	194
139.0407	83
144.5662	5
151.0404	21
157.6581	5
159.0455	11
161.0249	65
161.0619	18
164.0119	58
165.0198	276
167.0354	82
167.0988	28
174.9565	81
175.0401	8
175.0745	6
177.0204	7
177.0562	50
179.0353	999
181.0492	7
187.698	5
189.0565	15
191.0718	28
197.6658	11
199.0773	7
201.0559	26
203.0351	39
204.0432	37
217.0874	19
218.0624	5
219.0667	732
221.0458	751
233.0828	46
238.513	6
243.0662	52
245.0457	13
247.0253	110
261.0773	308
263.0566	49
287.0563	77
287.1091	17
