Mass spectrum: SACCHARATE; LC-ESI-QTOF; MS2; CE: 40;  [M-H]-
Name: SACCHARATE
Class: NA
Formula: C6H10O8
Exact mass: 210.03757
SMILES: O[C@@H]([C@H](O)[C@@H](O)C(O)=O)[C@H](O)C(O)=O
InChI: InChI=1S/C6H10O8/c7-1(3(9)5(11)12)2(8)4(10)6(13)14/h1-4,7-10H,(H,11,12)(H,13,14)/t1-,2-,3-,4+/m0/s1
Instrument: Agilent 6530Â Q-TOF LC/MS
Instrument type: LC-ESI-QTOF
Ms type: MS2
Ion mode: NEGATIVE
Ionization: ESI
Collision energy: 40
Column name: NA
Retention time: 0.200 min
Base peak: 209.02801
Precursor m/z: 209.02801
Precursor type: [M-H]-
Precursor intensity: 125
m/z	relative intensity
41.0156	125
43.0302	169
45.0066	195
55.0274	222
57.0241	570
59.0281	594
68.9948	609
71.0268	780
73.0073	837
75.0127	880
85.026	999
