Mass spectrum: Taurodeoxycholic acid; LC-ESI-ITFT; MS2; CE: 30;  [M+H]+
Name: Taurodeoxycholic acid
Class: Lipids and lipid-like molecules; Steroids and steroid derivatives; Bile acids, alcohols and derivatives
Formula: C26H45NO6S
Exact mass: 499.29676
SMILES: [H][C@@]1(CC[C@@]2([H])[C@]3([H])CC[C@]4([H])C[C@H](O)CC[C@]4(C)[C@@]3([H])C[C@H](O)[C@]12C)[C@H](C)CCC(=O)NCCS(O)(=O)=O
InChI: InChI=1S/C26H45NO6S/c1-16(4-9-24(30)27-12-13-34(31,32)33)20-7-8-21-19-6-5-17-14-18(28)10-11-25(17,2)22(19)15-23(29)26(20,21)3/h16-23,28-29H,4-15H2,1-3H3,(H,27,30)(H,31,32,33)/t16-,17-,18-,19+,20-,21+,22+,23+,25+,26-/m1/s1
Instrument: Thermo Scientific Q-Exactive Focus
Instrument type: LC-ESI-ITFT
Ms type: MS2
Ion mode: POSITIVE
Ionization: ESI
Collision energy: 30
Column name: Acquity CSHC18
Retention time: 0.914 min
Base peak: 500.30405
Precursor m/z: 500.30405
Precursor type: [M+H]+
m/z	relative intensity
126.022	650
135.1167	135
161.1324	125
208.0636	205
211.1479	115
215.1791	217
229.1584	147
321.2572	282
339.2678	575
464.2824	999
