Mass spectrum: hypoxanthine; LC-ESI-QTOF; MS2; CE: 15;  [M-H]-
Name: hypoxanthine
Class: NA
Formula: C5H4N4O
Exact mass: 136.0385
SMILES: C1=NC2=C(N1)C(=O)N=CN2
InChI: InChI=1S/C5H4N4O/c10-5-3-4(7-1-6-3)8-2-9-5/h1-2H,(H2,6,7,8,9,10)
Instrument: Bruker MicrOTOF-Q
Instrument type: LC-ESI-QTOF
Ms type: MS2
Ion mode: NEGATIVE
Ionization: ESI
Collision energy: 15
Column name: Acquity CSHC18
Retention time: NA
Base peak: 135.0312
Precursor m/z: 135.0312
Precursor type: [M-H]-
m/z	relative intensity
45.1217	104
48.2119	70
51.3183	97
52.8661	161
63.4678	114
64.8711	181
67.6081	70
72.9186	103
79.2529	100
81.5474	114
82.9285	111
87.2659	114
89.7317	87
91.9464	919
93.0262	222
95.2835	107
97.61	90
98.9145	94
106.0012	669
107.0391	94
108.0215	111
133.0285	131
135.0319	999
136.0352	211
137.1786	141
143.3356	67
177.7779	77
185.8471	107
195.8979	70
204.2032	94
241.7933	84
267.4334	67
277.5243	67
328.5176	80
340.5462	67
352.5223	74
386.0103	97
434.4824	107
465.7637	70
471.739	74
483.3704	67
504.0933	84
517.0695	80
528.3054	90
552.4479	134
563.0842	148
597.1367	74
650.3142	67
667.4856	84
711.7999	90
788.199	90
826.4971	70
930.552	127
983.032	124
