Mass spectrum: 1-stearoyl-2-hydroxy-sn-glycero-3-phospho-(1'-rac-glycerol) (sodium salt); ESI-TOF; MS2; CE: 6.0000000;  [M+H]+
Name: 1-stearoyl-2-hydroxy-sn-glycero-3-phospho-(1'-rac-glycerol) (sodium salt)
Class: NA
Formula: C24H48NaO9P
Exact mass: 534.29336
SMILES: [H]OC([H])([H])C([H])(O[H])C([H])([H])OP(=O)([O-])OC([H])([H])C([H])(O[H])C([H])([H])OC(=O)C([H])([H])C([H])([H])C([H])([H])C([H])([H])C([H])([H])C([H])([H])C([H])([H])C([H])([H])C([H])([H])C([H])([H])C([H])([H])C([H])([H])C([H])([H])C([H])([H])C([H])([H])C([H])([H])C([H])([H])[H].[Na+]
InChI: InChI=1S/C24H49O9P.Na/c1-2-3-4-5-6-7-8-9-10-11-12-13-14-15-16-17-24(28)31-19-23(27)21-33-34(29,30)32-20-22(26)18-25;/h22-23,25-27H,2-21H2,1H3,(H,29,30);/q;+1/p-1
Instrument: waters xevo g2 TOF
Instrument type: ESI-TOF
Ms type: MS2
Ion mode: POSITIVE
Ionization: ESI
Collision energy: 6.0000000
Column name: Acquity CSHC18
Retention time: 12.034 min
Base peak: 535.30136
Precursor m/z: 535.30136
Precursor type: [M+H]+
m/z	relative intensity
173.9617	18
285.005	29
341.3052	999
343.3103	27
381.2978	37
478.3018	95
496.3107	69
505.2419	26
513.3183	168
523.2864	35
532.2911	188
532.7928	56
535.3	904
