Mass spectrum: maltotriose; LC-ESI-QTOF; MS2; CE: -10, -35, -60V;  [M-H]-
Name: maltotriose
Class: NA
Formula: C18H32O16
Exact mass: 504.1690
SMILES: C(C1C(C(C(C(O1)OC2C(OC(C(C2O)O)OC3C(OC(C(C3O)O)O)CO)CO)O)O)O)O
InChI: InChI=1S/C18H32O16/c19-1-4-7(22)8(23)12(27)17(31-4)34-15-6(3-21)32-18(13(28)10(15)25)33-14-5(2-20)30-16(29)11(26)9(14)24/h4-29H,1-3H2
Instrument: TripleToF 5600; Sciex
Instrument type: LC-ESI-QTOF
Ms type: MS2
Ion mode: NEGATIVE
Ionization: ESI
Collision energy: -10, -35, -60V
Column name: Acquity CSHC18
Retention time: 0.693 min
Base peak: 503.1717
Precursor m/z: 503.1717
Precursor type: [M-H]-
Precursor intensity: 11898.88
m/z	relative intensity
71.0205	68
97.0292	50
161.0434	782
179.0584	351
263.0754	85
283.089	85
341.1066	789
359.092	133
383.1059	328
443.1169	101
499.1382	78
503.1388	619
503.1578	999
