Mass spectrum: Itaconic acid; LC-ESI-QTOF; MS2; CE: -10, -35, -60V;  [M-H]-
Name: Itaconic acid
Class: NA
Formula: C5H6O4
Exact mass: 130.0266
SMILES: C=C(CC(=O)O)C(=O)O
InChI: InChI=1S/C5H6O4/c1-3(5(8)9)2-4(6)7/h1-2H2,(H,6,7)(H,8,9)
Instrument: TripleToF 5600; Sciex
Instrument type: LC-ESI-QTOF
Ms type: MS2
Ion mode: NEGATIVE
Ionization: ESI
Collision energy: -10, -35, -60V
Column name: Acquity CSHC18
Retention time: 9.864 min
Base peak: 129.0188
Precursor m/z: 129.0188
Precursor type: [M-H]-
Precursor intensity: 209623.6
m/z	relative intensity
85.0284	999
86.0336	92
87.0421	10
129.0135	891
129.0215	892
