Mass spectrum: 4,5-Dihydroorotic acid; ESI-TOF; MS2; CE: 0.6458333;  [M+H]+
Name: 4,5-Dihydroorotic acid
Class: NA
Formula: C5H6N2O4
Exact mass: 158.03276
SMILES: OC(=O)C1CC(=O)NC(=O)N1
InChI: InChI=1S/C5H6N2O4/c8-3-1-2(4(9)10)6-5(11)7-3/h2H,1H2,(H,9,10)(H2,6,7,8,11)
Instrument: waters xevo g2 TOF
Instrument type: ESI-TOF
Ms type: MS2
Ion mode: POSITIVE
Ionization: ESI
Collision energy: 0.6458333
Column name: Acquity CSHC18
Retention time: 0.631 min
Base peak: 159.04076
Precursor m/z: 159.04076
Precursor type: [M+H]+
m/z	relative intensity
56.9435	99
71.0131	42
72.9373	4
84.9603	141
87.0563	4
88.0401	4
96.9616	4
98.9634	998
100.9636	4
102.0913	86
108.9634	4
113.0355	4
116.0354	4
116.9646	119
117.9798	4
124.9797	110
131.0457	4
131.9514	4
132.9629	4
145.9555	4
159.041	460
162.991	4
166.9552	175
167.9623	999
172.8617	569
181.0236	4
184.9654	573
194.1185	4
196.9876	920
208.9895	4
211.9703	4
213.9299	4
214.9979	4
229.0134	4
232.0507	33
235.9753	25
238.015	4
239.0077	4
240.0384	4
242.9937	4
243.9783	4
254.9939	390
258.1723	4
258.9258	4
260.9665	4
267.0328	53
273.0117	19
274.0242	4
281.9802	65
287.8871	4
289.9842	4
290.9685	29
298.9933	4
299.9919	230
300.9979	4
319.0221	4
321.024	4
325.9956	123
326.9975	4
355.0199	4
361.9752	4
365.1026	4
365.9986	4
370.9944	373
371.9966	4
372.9939	4
374.9868	4
396.0471	4
425.9154	45
447.9633	4
484.0277	4
513.0558	4
528.0191	4
529.0273	4
530.034	4
536.945	68
549.997	4
671.0979	4
686.0536	4
