Mass spectrum: H-Ile-Leu-OH; LC-ESI-QTOF; MS2; CE: 29.20;  [2M+H]+
Name: H-Ile-Leu-OH
Class: NA
Formula: C12H24N2O3
Exact mass: 244.1787
SMILES: CCC(C)C(C(=O)NC(CC(C)C)C(=O)O)N
InChI: InChI=1S/C12H24N2O3/c1-5-8(4)10(13)11(15)14-9(12(16)17)6-7(2)3/h7-10H,5-6,13H2,1-4H3,(H,14,15)(H,16,17)
Instrument: Bruker MicrOTOF-Q
Instrument type: LC-ESI-QTOF
Ms type: MS2
Ion mode: POSITIVE
Ionization: ESI
Collision energy: 29.20
Column name: Acquity CSHC18
Retention time: NA
Base peak: 489.3647
Precursor m/z: 489.3647
Precursor type: [2M+H]+
m/z	relative intensity
183.18	3
199.18	56
200.19	5
201.19	5
217.19	9
227.17	13
228.18	7
229.15	3
244.15	3
244.41	3
244.68	3
244.91	5
245.02	7
245.18	999
245.59	4
245.8	3
246.19	124
247.21	16
263.19	5
264.75	3
302.89	3
502.07	5
536.41	3
