Mass spectrum: 16:0 DG; ESI-TOF; MS2; CE: 6.0000000;  [M+H]+
Name: 16:0 DG
Class: NA
Formula: C35H68O5
Exact mass: 568.50668
SMILES: [H]OC([H])([H])C([H])(OC(=O)C([H])([H])C([H])([H])C([H])([H])C([H])([H])C([H])([H])C([H])([H])C([H])([H])C([H])([H])C([H])([H])C([H])([H])C([H])([H])C([H])([H])C([H])([H])C([H])([H])C([H])([H])[H])C([H])([H])OC(=O)C([H])([H])C([H])([H])C([H])([H])C([H])([H])C([H])([H])C([H])([H])C([H])([H])C([H])([H])C([H])([H])C([H])([H])C([H])([H])C([H])([H])C([H])([H])C([H])([H])C([H])([H])[H]
InChI: InChI=1S/C35H68O5/c1-3-5-7-9-11-13-15-17-19-21-23-25-27-29-34(37)39-32-33(31-36)40-35(38)30-28-26-24-22-20-18-16-14-12-10-8-6-4-2/h33,36H,3-32H2,1-2H3
Instrument: waters xevo g2 TOF
Instrument type: ESI-TOF
Ms type: MS2
Ion mode: POSITIVE
Ionization: ESI
Collision energy: 6.0000000
Column name: Acquity CSHC18
Retention time: 12.084 min
Base peak: 569.51468
Precursor m/z: 569.51468
Precursor type: [M+H]+
m/z	relative intensity
101.9654	14
137.9637	7
139.9881	9
143.9962	7
173.9616	14
185.1189	12
239.2375	7
285.2161	14
313.2739	762
314.2768	164
315.2822	15
324.746	7
369.2302	33
380.2003	9
382.2206	5
476.4211	5
551.5034	999
552.5073	396
567.4324	6
569.5155	27
570.5188	8
