Mass spectrum: THYMIDINE-MONOPHOSPHATE; LC-ESI-QFT; MS2; CE: 30eV;  [M-H]-
Name: THYMIDINE-MONOPHOSPHATE
Class: NA
Formula: C10H15N2O8P
Exact mass: 322.05660
SMILES: CC1=CN([C@H]2C[C@H](O)[C@@H](COP(O)(O)=O)O2)C(=O)NC1=O
InChI: InChI=1S/C10H15N2O8P/c1-5-3-12(10(15)11-9(5)14)8-2-6(13)7(20-8)4-19-21(16,17)18/h3,6-8,13H,2,4H2,1H3,(H,11,14,15)(H2,16,17,18)/t6-,7+,8+/m0/s1
Instrument: Q-Exactive Orbitrap, Thermo Scientfic; Ultimate 3000 HPLC, Thermo Scientfic
Instrument type: LC-ESI-QFT
Ms type: MS2
Ion mode: NEGATIVE
Ionization: ESI
Collision energy: 30eV
Column name: Acquity CSHC18
Retention time: 0.863 min
Base peak: 321.0493
Precursor m/z: 321.0493
Precursor type: [M-H]-
Precursor intensity: 114
m/z	relative intensity
56.4952	1
61.5353	1
64.1673	1
65.1112	1
72.5437	1
74.4307	1
78.9573	999
84.4689	1
96.9679	245
100.8017	1
102.2919	1
119.701	1
125.0341	595
126.0311	1
126.0375	11
146.9598	2
150.9791	17
174.9548	3
176.9947	246
177.9981	3
183.6176	1
195.0055	751
196.0089	21
230.4428	1
261.7072	1
278.0439	2
321.0494	138
322.0533	10
333.4897	1
