Mass spectrum: SERINE; LC-ESI-QTOF; MS2; CE: 20;  [M-H]-
Name: SERINE
Class: NA
Formula: C3H7NO3
Exact mass: 105.04259
SMILES: N[C@@H](CO)C(O)=O
InChI: InChI=1S/C3H7NO3/c4-2(1-5)3(6)7/h2,5H,1,4H2,(H,6,7)/t2-/m0/s1
Instrument: Agilent 6530Â Q-TOF LC/MS
Instrument type: LC-ESI-QTOF
Ms type: MS2
Ion mode: NEGATIVE
Ionization: ESI
Collision energy: 20
Column name: NA
Retention time: 0.200 min
Base peak: 104.03771
Precursor m/z: 104.03771
Precursor type: [M-H]-
Precursor intensity: 139
m/z	relative intensity
44.014	133
56.0193	185
59.0112	216
74.0336	999
