Mass spectrum: Ureidopropionic acid; LC-ESI-QTOF; MS2; CE: 30;  [M-H]-
Name: Ureidopropionic acid
Class: NA
Formula: C4H8N2O3
Exact mass: 132.05349
SMILES: C(CNC(=O)N)C(=O)O
InChI: InChI=1S/C4H8N2O3/c5-4(9)6-2-1-3(7)8/h1-2H2,(H,7,8)(H3,5,6,9)
Instrument: impact II
Instrument type: LC-ESI-QTOF
Ms type: MS2
Ion mode: NEGATIVE
Ionization: ESI
Collision energy: 30
Column name: Acquity CSHC18
Retention time: 1.789 min
Base peak: 131.04630
Precursor m/z: 131.04630
Precursor type: [M-H]-
m/z	relative intensity
59.0136	204
59.025	711
88.0405	999
