Mass spectrum: METHIONINE SULFOXIMINE; LC-ESI-QTOF; MS2; CE: 20;  [M+H]+
Name: METHIONINE SULFOXIMINE
Class: NA
Formula: C5H12N2O3S
Exact mass: 180.05686
SMILES: CS(=N)(=O)CCC(N)C(O)=O
InChI: InChI=1S/C5H12N2O3S/c1-11(7,10)3-2-4(6)5(8)9/h4,7H,2-3,6H2,1H3,(H,8,9)
Instrument: Agilent 6530Â Q-TOF LC/MS
Instrument type: LC-ESI-QTOF
Ms type: MS2
Ion mode: POSITIVE
Ionization: ESI
Collision energy: 20
Column name: NA
Retention time: 0.200 min
Base peak: 181.06633
Precursor m/z: 181.06633
Precursor type: [M+H]+
Precursor intensity: 179.5
m/z	relative intensity
42.033	38
44.0577	41
46.0424	46
56.1312	48
56.4605	106
57.0542	119
63.0023	124
74.067	177
74.2767	200
80.0296	349
84.0681	528
85.0377	792
102.0827	999
