Mass spectrum: Lyciumoside I; LC-ESI-QTOF; MS2; CE: 20eV;  [M+NH4]+
Name: Lyciumoside I
Class: Diterpene
Formula: C32H54O12
Exact mass: 630.3615
SMILES: O[C@@H]1[C@@H](O)[C@H](O)[C@@H](CO)O[C@H]1OCC(/C)=C\CCC(\C)=C\CCC(\C)=C\CC[C@](C)(O[C@@H]1O[C@H](CO)[C@@H](O)[C@H](O)[C@H]1O)C=C
InChI: InChI=1S/C32H54O12/c1-6-32(5,44-31-29(40)27(38)25(36)23(17-34)43-31)15-9-14-20(3)11-7-10-19(2)12-8-13-21(4)18-41-30-28(39)26(37)24(35)22(16-33)42-30/h6,10,13-14,22-31,33-40H,1,7-9,11-12,15-18H2,2-5H3/b19-10+,20-14+,21-13-/t22-,23-,24-,25-,26+,27+,28-,29-,30-,31+,32-/m1/s1
Instrument: Impact II qTOF
Instrument type: LC-ESI-QTOF
Ms type: MS2
Ion mode: POSITIVE
Ionization: ESI
Collision energy: 20eV
Column name: Acquity CSH C18 column (particle size 1.7 μm, column length 2.1 × 50 mm) (Waters)
Retention time: 11.7 min
Base peak: 648.3974
Precursor m/z: 648.3974
Precursor type: [M+NH4]+
m/z	relative intensity
149.133	70
215.1789	76
271.2421	999
272.2453	195
289.2527	312
290.2569	71
325.1128	141
433.2953	86
451.3038	115
648.3974	267
