Mass spectrum: N6-Acetyl-L-lysine; ESI-TOF; MS2; CE: 0.6458333;  [M+H]+
Name: N6-Acetyl-L-lysine
Class: NA
Formula: C8H16N2O3
Exact mass: 188.11609
SMILES: CC(=O)NCCCCC(N)C(O)=O
InChI: InChI=1S/C8H16N2O3/c1-6(11)10-5-3-2-4-7(9)8(12)13/h7H,2-5,9H2,1H3,(H,10,11)(H,12,13)
Instrument: waters xevo g2 TOF
Instrument type: ESI-TOF
Ms type: MS2
Ion mode: POSITIVE
Ionization: ESI
Collision energy: 0.6458333
Column name: Acquity CSHC18
Retention time: 0.565 min
Base peak: 189.12409
Precursor m/z: 189.12409
Precursor type: [M+H]+
m/z	relative intensity
56.0502	2
84.0817	999
85.0849	62
97.9694	108
102.0922	3
112.0764	5
124.9914	2
126.0922	336
127.0952	27
129.1027	1
130.0871	34
143.1189	6
151.9225	4
166.0847	11
169.0209	3
173.8694	5
183.0804	1
189.1241	19
