Mass spectrum: Arillatose B; LC-ESI-ITFT; MS2; CE: 35eV;  [M-H]-
Name: Arillatose B
Class: Hydroxycinnamic ester
Formula: C22H30O14
Exact mass: 518.1636
SMILES: COC1=C(C=CC(=C1)C=CC(=O)OCC2C(C(C(C(O2)OC3(C(C(C(O3)CO)O)O)CO)O)O)O)O
InChI: InChI=1S/C22H30O14/c1-32-12-6-10(2-4-11(12)25)3-5-15(26)33-8-14-16(27)18(29)19(30)21(34-14)36-22(9-24)20(31)17(28)13(7-23)35-22/h2-6,13-14,16-21,23-25,27-31H,7-9H2,1H3
Instrument: LTQ Orbitrap XL, Thermo Scientfic; Dionex Ultimate 300
Instrument type: LC-ESI-ITFT
Ms type: MS2
Ion mode: NEGATIVE
Ionization: ESI
Collision energy: 35eV
Column name: Lichrospher C18 Column 250*4 5um, Interchim
Retention time: 98.415 min
Base peak: 517.1550
Precursor m/z: 517.1550
Precursor type: [M-H]-
m/z	relative intensity
147.1465	7
148.0578	2
149.1098	18
158.1622	15
159.4781	7
160.1605	135
161.2321	9
163.2542	3
164.2307	1
173.2648	16
175.1514	521
176.2038	60
177.5286	10
178.1679	54
179.0547	9
186.9911	6
188.0681	5
189.2006	2
191.1769	112
193.125	999
201.1373	1
202.1259	8
203.2798	10
205.2584	4
207.2412	45
217.1509	32
218.0616	2
219.3254	9
220.2387	9
221.0773	12
231.3256	1
232.2493	2
233.274	3
235.1534	614
244.4002	2
245.2743	2
247.1281	45
251.2165	2
258.9937	4
260.0988	2
261.334	1
265.2493	374
277.2376	8
281.1931	4
289.1702	6
295.2278	435
301.3444	2
306.9644	6
319.1548	24
322.4409	9
323.3186	25
337.286	306
341.2045	47
355.1522	96
467.3096	2
470.3931	2
485.5169	2
517.2408	4
