Mass spectrum: 6-(Malonyl-GlcO)-Indole-3-carboxylic acid; LC-ESI-QTOF; MS2; CE: 23.11;  [M-H2O+H]+
Name: 6-(Malonyl-GlcO)-Indole-3-carboxylic acid
Class: NA
Formula: C18H19NO11
Exact mass: 425.0958
SMILES: C1=CC2=C(C=C1OC3C(C(C(C(O3)COC(=O)CC(=O)O)O)O)O)C(=CN2)C(=O)O
InChI: InChI=1S/C18H19NO11/c20-12(21)4-13(22)28-6-11-14(23)15(24)16(25)18(30-11)29-7-1-2-10-8(3-7)9(5-19-10)17(26)27/h1-3,5,11,14-16,18-19,23-25H,4,6H2,(H,20,21)(H,26,27)
Instrument: Bruker MicrOTOF-Q
Instrument type: LC-ESI-QTOF
Ms type: MS2
Ion mode: POSITIVE
Ionization: ESI
Collision energy: 23.11
Column name: Acquity CSHC18
Retention time: NA
Base peak: 408.0925
Precursor m/z: 408.0925
Precursor type: [M-H2O+H]+
m/z	relative intensity
124.0369	27
125.0212	37
132.0365	12
133.0586	8
160.0385	999
161.0434	85
184.0421	16
189.0481	5
193.0515	99
202.0519	51
203.0542	15
204.0318	15
213.0405	9
219.0208	6
240.0654	6
264.9733	10
267.0017	6
276.0221	6
289.1807	5
305.9825	44
306.9793	8
314.0606	7
322.0958	31
374.0852	8
396.0536	7
