Mass spectrum: Histamine; LC-ESI-ITFT; MS2; CE: 100;  [M+H]+
Name: Histamine
Class: Organic nitrogen compounds; Organonitrogen compounds; Amines
Formula: C5H9N3
Exact mass: 111.07965
SMILES: NCCC1=CNC=N1
InChI: InChI=1S/C5H9N3/c6-2-1-5-3-7-4-8-5/h3-4H,1-2,6H2,(H,7,8)
Instrument: Thermo Scientific Q-Exactive Focus
Instrument type: LC-ESI-ITFT
Ms type: MS2
Ion mode: POSITIVE
Ionization: ESI
Collision energy: 100
Column name: Acquity CSHC18
Retention time: 2.570 min
Base peak: 112.08692
Precursor m/z: 112.08692
Precursor type: [M+H]+
m/z	relative intensity
53.0028	999
55.9691	95
65.6157	111
66.6102	98
71.8739	113
82.1219	108
87.4196	111
113.3484	108
128.6326	104
128.7695	102
