Mass spectrum: U-46619; ESI-TOF; MS2; CE: 6.0000000;  [M+H]+
Name: U-46619
Class: NA
Formula: C21H34O4
Exact mass: 350.24571
SMILES: CCCCC[C@H](O)/C=C/[C@H]1C2OCC(C2)[C@@H]1C/C=C\CCCC(O)=O
InChI: InChI=1S/C21H34O4/c1-2-3-6-9-17(22)12-13-19-18(16-14-20(19)25-15-16)10-7-4-5-8-11-21(23)24/h4,7,12-13,16-20,22H,2-3,5-6,8-11,14-15H2,1H3,(H,23,24)/b7-4-,13-12+/t16?,17-,18-,19+,20?/m0/s1
Instrument: waters xevo g2 TOF
Instrument type: ESI-TOF
Ms type: MS2
Ion mode: POSITIVE
Ionization: ESI
Collision energy: 6.0000000
Column name: Acquity CSHC18
Retention time: 4.309 min
Base peak: 351.25371
Precursor m/z: 351.25371
Precursor type: [M+H]+
m/z	relative intensity
91.054	2
93.0707	2
107.0874	1
117.0713	3
119.0863	5
123.1188	1
125.9923	2
133.1014	3
135.1184	4
145.1027	4
147.1173	8
161.134	11
163.1487	2
171.1202	2
175.149	5
177.0938	6
179.1059	3
181.1034	2
183.1159	2
186.097	23
187.1463	3
189.165	5
191.1055	3
195.104	4
199.1135	6
201.1413	1
211.1016	2
213.1273	5
215.1788	2
217.1576	80
218.1979	24
219.1377	4
223.1481	1
229.196	7
231.1369	7
245.1517	3
255.211	3
257.1928	4
259.204	20
260.205	2
263.2004	4
265.2169	68
266.2222	20
269.2258	31
270.229	5
279.2117	24
281.1711	3
285.2222	16
287.2356	20
297.2218	152
298.2255	26
299.2264	2
301.1778	4
303.2328	81
304.2351	10
305.2483	20
306.2481	3
315.2319	914
316.2356	190
317.2384	22
333.2423	999
334.243	219
335.25	29
349.2371	2
