Mass spectrum: Uracil; LC-ESI-QTOF; MS2; CE: 15.00;  [M+H]+
Name: Uracil
Class: NA
Formula: C4H4N2O2
Exact mass: 112.0273
SMILES: C1=CNC(=O)NC1=O
InChI: InChI=1S/C4H4N2O2/c7-3-1-2-5-4(8)6-3/h1-2H,(H2,5,6,7,8)
Instrument: Bruker MicrOTOF-Q
Instrument type: LC-ESI-QTOF
Ms type: MS2
Ion mode: POSITIVE
Ionization: ESI
Collision energy: 15.00
Column name: Acquity CSHC18
Retention time: NA
Base peak: 113.0346
Precursor m/z: 113.0346
Precursor type: [M+H]+
m/z	relative intensity
65.3517	13
95.0243	115
96.005	999
97.0069	95
113.0347	843
114.0322	35
