Mass spectrum: 6-OH-Kae-3,6,4'-OMe; LC-ESI-QTOF; MS2; CE: 50eV;  [M-H]-
Name: 6-OH-Kae-3,6,4'-OMe
Class: Flavonol
Formula: C18H16O7
Exact mass: 344.0896
SMILES: OC1=CC2=C(C(C(OC)=C(C3=CC=C(OC)C=C3)O2)=O)C(O)=C1OC
InChI: InChI=1S/C18H16O7/c1-22-10-6-4-9(5-7-10)16-18(24-3)15(21)13-12(25-16)8-11(19)17(23-2)14(13)20/h4-8,19-20H,1-3H3
Instrument: TIMS-TOF Pro, Bruker Daltonik; Elute UHPLC System, Bruker Daltonik
Instrument type: LC-ESI-QTOF
Ms type: MS2
Ion mode: NEGATIVE
Ionization: ESI
Collision energy: 50eV
Column name: Acquity CSHC18
Retention time: 9.565 min
Base peak: 343.0788
Precursor m/z: 343.0788
Precursor type: [M-H]-
Precursor intensity: 274210
m/z	relative intensity
49.4856	3
60.227	2
65.0022	8
66.9933	2
68.9975	2
83.9539	2
96.0206	2
101.1758	2
105.0341	5
108.0203	2
110.0056	2
116.0242	3
117.0301	3
118.7077	2
120.9914	3
121.9976	6
123.1165	2
124.0157	11
126.5783	2
127.1395	3
128.6123	3
130.0414	40
131.043	7
132.0195	34
132.7343	2
133.0214	4
136.9859	3
141.031	3
142.0402	23
142.9266	6
144.0902	2
145.0286	7
146.0424	2
149.9921	7
150.8778	2
152.0091	4
153.0138	2
154.0376	3
156.3929	3
158.0357	33
158.772	2
159.0403	3
160.9869	2
162.3341	2
163.0038	2
164.4625	2
165.9887	3
167.1241	1
167.8383	3
169.0641	4
170.0332	11
171.808	2
173.0233	3
173.7666	2
176.4959	4
178.0325	2
178.9974	6
180.0051	3
180.4136	3
182.1991	3
185.0214	9
185.7492	3
186.0308	128
187.0343	15
188.4537	3
192.0028	5
194.2356	2
197.0209	4
198.0314	10
199.0378	3
201.056	2
204.9763	2
213.0178	8
214.027	18
215.027	5
222.5458	2
226.0288	3
235.5425	2
241.0162	5
242.0209	40
243.0399	2
244.0266	2
252.1223	2
269.0254	3
270.0142	97
271.0178	6
275.2235	2
285.0375	128
285.3358	2
286.0393	17
287.0482	5
298.0074	7
299.0044	2
300.0578	8
313.032	546
313.177	2
313.2496	2
313.3947	2
313.5315	2
313.7828	2
314.0342	60
314.7611	2
315.0409	3
327.0473	7
327.7348	2
327.9989	298
328.2203	4
328.3117	7
328.5131	5
328.6794	2
328.8004	2
328.9205	3
329.0578	252
329.2423	3
329.8391	2
330.0625	21
342.9036	2
342.9649	1
343.0788	999
343.2628	2
343.3797	2
343.4557	2
