Mass spectrum: Phloridzin; LC-ESI-QFT; MS2; CE: NCE_15_30_81;  [M-H]-
Name: Phloridzin
Class: NA
Formula: C21H24O10
Exact mass: 436.1369
SMILES: C1=CC(=CC=C1CCC(=O)C2=C(C=C(C=C2OC3C(C(C(C(O3)CO)O)O)O)O)O)O
InChI: InChI=1S/C21H24O10/c22-9-16-18(27)19(28)20(29)21(31-16)30-15-8-12(24)7-14(26)17(15)13(25)6-3-10-1-4-11(23)5-2-10/h1-2,4-5,7-8,16,18-24,26-29H,3,6,9H2
Instrument: Thermo_Qexactive_Plus
Instrument type: LC-ESI-QFT
Ms type: MS2
Ion mode: NEGATIVE
Ionization: ESI
Collision energy: NCE_15_30_81
Column name: Acquity CSHC18
Retention time: 5.052 min
Base peak: 435.1310
Precursor m/z: 435.1310
Precursor type: [M-H]-
Precursor intensity: 315015100
m/z	relative intensity
57.2508	12
59.2332	13
71.0248	14
81.0333	14
93.0328	14
119.0498	15
123.0441	15
125.0236	18
149.024	23
167.0342	29
168.0379	29
179.0343	36
185.4371	42
191.0349	45
264.0619	56
273.0735	65
274.0795	103
285.0437	112
297.0766	136
371.5635	548
435.1317	999
