Mass spectrum: trans-Sinapic acid; LC-ESI-QTOF; MS2; CE: 15;  [M-H]-
Name: trans-Sinapic acid
Class: NA
Formula: C11H12O5
Exact mass: 224.0685
SMILES: COC1=CC(=CC(=C1O)OC)C=CC(=O)O
InChI: InChI=1S/C11H12O5/c1-15-8-5-7(3-4-10(12)13)6-9(16-2)11(8)14/h3-6,14H,1-2H3,(H,12,13)
Instrument: Bruker MicrOTOF-Q
Instrument type: LC-ESI-QTOF
Ms type: MS2
Ion mode: NEGATIVE
Ionization: ESI
Collision energy: 15
Column name: Acquity CSHC18
Retention time: NA
Base peak: 223.0612
Precursor m/z: 223.0612
Precursor type: [M-H]-
m/z	relative intensity
109.0312	2
121.0294	72
132.0175	1
134.0389	8
135.0444	61
136.0452	7
137.0217	3
147.0448	2
148.0185	2
148.4956	1
149.024	427
150.027	34
151.0361	9
152.0115	48
153.0176	3
163.0392	154
163.9628	142
165.022	72
167.0353	6
169.0506	15
179.0674	7
180.0436	3
192.29	3
193.014	999
193.8197	50
195.0242	4
208.0369	315
209.0412	38
223.0621	15
224.0624	2
