Mass spectrum: Nicotianoside IX; LC-ESI-QTOF; MS2; CE: 22.5eV;  [M+NH4]+
Name: Nicotianoside IX
Class: Diterpene
Formula: C35H56O15
Exact mass: 716.3619
SMILES: O[C@@H]1[C@@H](O)[C@H](O)[C@@H](CO)O[C@H]1O[C@](C)(C=C)CC\C=C(/C)CC\C=C(/C)CC\C=C(\C)CO[C@@H]1O[C@H](COC(=O)CC(=O)O)[C@@H](O)[C@H](O)[C@H]1O
InChI: InChI=1S/C35H56O15/c1-6-35(5,50-34-32(45)29(42)27(40)23(17-36)48-34)15-9-14-21(3)11-7-10-20(2)12-8-13-22(4)18-47-33-31(44)30(43)28(41)24(49-33)19-46-26(39)16-25(37)38/h6,10,13-14,23-24,27-34,36,40-45H,1,7-9,11-12,15-19H2,2-5H3,(H,37,38)/b20-10+,21-14+,22-13-/t23-,24-,27-,28-,29+,30+,31-,32-,33-,34+,35-/m1/s1
Instrument: Impact II qTOF
Instrument type: LC-ESI-QTOF
Ms type: MS2
Ion mode: POSITIVE
Ionization: ESI
Collision energy: 22.5eV
Column name: Acquity CSH C18 column (particle size 1.7 μm, column length 2.1 × 50 mm) (Waters)
Retention time: 21.7 min
Base peak: 734.3965
Precursor m/z: 734.3965
Precursor type: [M+NH4]+
m/z	relative intensity
147.1172	21
149.132	64
150.1364	7
159.1169	17
163.0606	8
163.1478	58
164.1512	7
175.1474	41
189.1634	42
190.1668	6
201.1639	41
203.1785	37
215.1796	100
216.1827	14
229.1942	16
231.2106	38
232.0536	6
249.0604	278
250.0627	24
267.0722	14
271.2418	999
272.2452	214
284.0963	34
289.2521	221
290.2563	44
375.0931	21
393.1025	54
394.1053	7
411.1145	114
433.2934	23
452.3075	10
468.3322	46
469.3358	12
519.2963	22
520.3001	7
537.3041	8
734.3965	325
