Mass spectrum: Nobiletin; LC-ESI-ITFT; MS2; CE: 45eV;  [M+H]+
Name: Nobiletin
Class: Flavonoid
Formula: C21H22O8
Exact mass: 402.1315
SMILES: COC1=C(C=C(C=C1)C2=CC(=O)C3=C(O2)C(=C(C(=C3OC)OC)OC)OC)OC
InChI: InChI=1S/C21H22O8/c1-23-13-8-7-11(9-15(13)24-2)14-10-12(22)16-17(25-3)19(26-4)21(28-6)20(27-5)18(16)29-14/h7-10H,1-6H3
Instrument: LTQ Orbitrap XL, Thermo Scientfic; Dionex Ultimate 300
Instrument type: LC-ESI-ITFT
Ms type: MS2
Ion mode: POSITIVE
Ionization: ESI
Collision energy: 45eV
Column name: Alltima C18
Retention time: 20.27 min
Base peak: 403.1392
Precursor m/z: 403.1392
Precursor type: [M+H]+
m/z	relative intensity
324.161	11
340.3315	3
355.1168	89
369.2213	8
373.1459	999
