Mass spectrum: Quercetin.Glc.Rha.Rha; LC-ESI-ITFT; MS2; CE: 30;  [M+H]+
Name: Quercetin.Glc.Rha.Rha
Class: NA
Formula: C33H40O20
Exact mass: 756.2113
SMILES: c1(cc(c2c(c1)oc(c(c2=O)O[C@@H]1O[C@H]([C@@H](O)[C@@H](O)[C@H]1O[C@H]1[C@@H]([C@H]([C@@H](O)[C@@H](C)O1)O)O)CO)c1ccc(c(c1)O)O)O)O[C@H]1[C@H]([C@H]([C@@H](O)[C@H](C)O1)O)O
InChI: InChI=1S/C33H40O20/c1-9-19(38)23(42)26(45)31(47-9)49-12-6-15(37)18-16(7-12)50-28(11-3-4-13(35)14(36)5-11)29(22(18)41)52-33-30(25(44)21(40)17(8-34)51-33)53-32-27(46)24(43)20(39)10(2)48-32/h3-7,9-10,17,19-21,23-27,30-40,42-46H,8H2,1-2H3/t9-,10+,17-,19-,20-,21+,23-,24-,25+,26-,27+,30+,31-,32-,33-/m0/s1
Instrument: q exactive focus thermo
Instrument type: LC-ESI-ITFT
Ms type: MS2
Ion mode: POSITIVE
Ionization: ESI
Collision energy: 30
Column name: Acquity CSHC18
Retention time: 5.513 min
Base peak: 757.2191
Precursor m/z: 757.2191
Precursor type: [M+H]+
Precursor intensity: 10919720
m/z	relative intensity
102.9592	39
112.9613	39
129.0566	44
131.065	69
149.9505	74
213.9048	120
224.9142	824
427.041	999
