Mass spectrum: MELATONIN; LC-ESI-QTOF; MS2; CE: 10;  [M+H]+
Name: MELATONIN
Class: NA
Formula: C13H16N2O2
Exact mass: 232.12118
SMILES: COC1=CC2=C(NC=C2CCNC(C)=O)C=C1
InChI: InChI=1S/C13H16N2O2/c1-9(16)14-6-5-10-8-15-13-4-3-11(17-2)7-12(10)13/h3-4,7-8,15H,5-6H2,1-2H3,(H,14,16)
Instrument: Agilent 6530Â Q-TOF LC/MS
Instrument type: LC-ESI-QTOF
Ms type: MS2
Ion mode: POSITIVE
Ionization: ESI
Collision energy: 10
Column name: NA
Retention time: 0.200 min
Base peak: 233.12982
Precursor m/z: 233.12982
Precursor type: [M+H]+
Precursor intensity: 180.5
m/z	relative intensity
43.0365	6
44.0538	6
51.0276	7
60.0514	7
63.0251	7
65.0383	7
75.0221	7
77.0535	7
78.0579	7
79.0586	7
86.0902	7
89.0478	7
90.0457	7
91.0765	7
92.0554	7
93.0589	8
103.0698	8
104.073	8
105.0752	8
107.0376	8
108.0628	8
114.0445	8
115.0842	8
116.0731	8
117.0972	8
118.0823	8
119.0902	8
127.072	9
128.0591	9
129.0826	9
130.2497	9
130.732	10
131.1735	10
131.6885	10
132.0821	10
133.0653	11
134.0489	12
140.0568	13
141.0658	13
142.1058	14
142.555	14
143.4295	15
144.2123	15
144.7399	15
144.8828	15
145.0933	15
146.1029	16
147.1057	17
148.1014	20
153.0628	21
154.0678	21
156.0768	23
157.0736	24
157.9079	25
158.088	26
158.499	29
158.8943	32
159.8232	36
160.8418	37
161.1013	37
162.1236	38
165.0373	39
167.083	43
170.1042	43
172.072	43
175.4716	46
178.9665	48
179.1654	50
179.8264	57
180.0794	60
180.5335	63
181.0768	67
183.0836	70
184.0659	74
186.0735	85
188.1319	98
189.0956	119
191.1502	119
198.1221	137
201.0978	150
204.1407	157
214.8699	157
215.1472	167
216.851	185
217.934	188
218.235	207
218.5145	213
218.9425	213
233.8322	262
234.8065	999
234.9558	6
235.07	6
