Mass spectrum: 3-deoxy sphingosine; ESI-TOF; MS2; CE: 6.0000000;  [M+H]+
Name: 3-deoxy sphingosine
Class: NA
Formula: C18H37NO
Exact mass: 283.28751
SMILES: [H]OC([H])([H])C([H])(N([H])[H])C([H])([H])C([H])=C([H])C([H])([H])C([H])([H])C([H])([H])C([H])([H])C([H])([H])C([H])([H])C([H])([H])C([H])([H])C([H])([H])C([H])([H])C([H])([H])C([H])([H])C([H])([H])[H]
InChI: InChI=1S/C18H37NO/c1-2-3-4-5-6-7-8-9-10-11-12-13-14-15-16-18(19)17-20/h14-15,18,20H,2-13,16-17,19H2,1H3
Instrument: waters xevo g2 TOF
Instrument type: ESI-TOF
Ms type: MS2
Ion mode: POSITIVE
Ionization: ESI
Collision energy: 6.0000000
Column name: Acquity CSHC18
Retention time: 4.310 min
Base peak: 284.29551
Precursor m/z: 284.29551
Precursor type: [M+H]+
m/z	relative intensity
67.0553	5
69.0707	8
81.0709	19
95.0862	24
96.0897	2
97.102	13
109.1019	38
110.1051	3
111.1174	12
112.1208	1
123.1173	32
125.1329	2
137.133	16
151.1484	8
165.1645	5
179.18	2
193.1952	2
207.2108	5
213.2219	2
221.227	2
225.223	2
249.2588	54
250.263	10
266.2856	46
267.2861	21
268.2736	4
284.4087	999
285.396	577
