Mass spectrum: CAFFEINE; LC-ESI-QFT; MS2; CE: 30eV;  [M+H]+
Name: CAFFEINE
Class: NA
Formula: C8H10N4O2
Exact mass: 194.08038
SMILES: CN1C=NC2=C1C(=O)N(C)C(=O)N2C
InChI: InChI=1S/C8H10N4O2/c1-10-4-9-6-5(10)7(13)12(3)8(14)11(6)2/h4H,1-3H3
Instrument: Q-Exactive Orbitrap, Thermo Scientfic; Ultimate 3000 HPLC, Thermo Scientfic
Instrument type: LC-ESI-QFT
Ms type: MS2
Ion mode: POSITIVE
Ionization: ESI
Collision energy: 30eV
Column name: Acquity CSHC18
Retention time: 6.126 min
Base peak: 195.0877
Precursor m/z: 195.0877
Precursor type: [M+H]+
Precursor intensity: 154
m/z	relative intensity
50.4263	1
53.8688	1
55.2404	1
55.8458	1
62.17	1
67.7367	1
69.0454	10
83.0609	7
84.8374	2
89.0604	1
110.0717	43
111.0555	2
123.0426	8
138.0664	999
139.0696	16
151.0979	3
156.077	2
180.0637	10
194.1181	9
194.8757	2
196.0916	132
