Mass spectrum: 7-(methylsulfinyl)heptyl glucosinolate; LC-ESI-QTOF; MS2; CE: 50eV;  [M-H]-
Name: 7-(methylsulfinyl)heptyl glucosinolate
Class: aliphatic glucosinolate
Formula: C15H29NO10S3
Exact mass: 479.0954
SMILES: CS(=O)CCCCCCCC(=NOS(=O)(=O)O)SC1C(C(C(C(O1)CO)O)O)O
InChI: InChI=1S/C15H29NO10S3/c1-28(21)8-6-4-2-3-5-7-11(16-26-29(22,23)24)27-15-14(20)13(19)12(18)10(9-17)25-15/h10,12-15,17-20H,2-9H2,1H3,(H,22,23,24)
Instrument: TIMS-TOF Pro, Bruker Daltonik; Elute UHPLC System, Bruker Daltonik
Instrument type: LC-ESI-QTOF
Ms type: MS2
Ion mode: NEGATIVE
Ionization: ESI
Collision energy: 50eV
Column name: Acquity CSHC18
Retention time: 4.893 min
Base peak: 478.0770
Precursor m/z: 478.0770
Precursor type: [M-H]-
Precursor intensity: 2012
m/z	relative intensity
74.9892	180
79.9542	57
96.9571	338
99.0519	47
478.0804	999
