Mass spectrum: Matairesinol; LC-ESI-ITFT; MS2; CE: 20;  [M-H]-
Name: Matairesinol
Class: Lignans, neolignans and related compounds; Furanoid lignans; Tetrahydrofuran lignans
Formula: C20H22O6
Exact mass: 358.14164
SMILES: COC1=CC(CC2C(CC3=CC(OC)=C(O)C=C3)COC2=O)=CC=C1O
InChI: InChI=1S/C20H22O6/c1-24-18-9-12(3-5-16(18)21)7-14-11-26-20(23)15(14)8-13-4-6-17(22)19(10-13)25-2/h3-6,9-10,14-15,21-22H,7-8,11H2,1-2H3
Instrument: Thermo Scientific Q-Exactive Focus
Instrument type: LC-ESI-ITFT
Ms type: MS2
Ion mode: NEGATIVE
Ionization: ESI
Collision energy: 20
Column name: Acquity CSHC18
Retention time: 0.648 min
Base peak: 357.13437
Precursor m/z: 357.13437
Precursor type: [M-H]-
m/z	relative intensity
83.0126	999
121.0283	80
122.0361	73
123.0439	87
137.0596	293
147.044	87
209.0812	90
221.0813	203
342.1102	191
357.1339	555
