Mass spectrum: DEOXYADENOSINE; LC-ESI-QTOF; MS2; CE: 40;  [M+H]+
Name: DEOXYADENOSINE
Class: NA
Formula: C10H13N5O3
Exact mass: 251.1018
SMILES: NC1=C2N=CN([C@H]3C[C@H](O)[C@@H](CO)O3)C2=NC=N1
InChI: InChI=1S/C10H13N5O3/c11-9-8-10(13-3-12-9)15(4-14-8)7-1-5(17)6(2-16)18-7/h3-7,16-17H,1-2H2,(H2,11,12,13)/t5-,6+,7+/m0/s1
Instrument: Agilent 6530Â Q-TOF LC/MS
Instrument type: LC-ESI-QTOF
Ms type: MS2
Ion mode: POSITIVE
Ionization: ESI
Collision energy: 40
Column name: NA
Retention time: 0.200 min
Base peak: 252.10993
Precursor m/z: 252.10993
Precursor type: [M+H]+
Precursor intensity: 96.5
m/z	relative intensity
41.0387	27
43.0524	27
45.033	29
53.0379	31
57.0306	34
59.0484	52
65.0123	69
67.0267	72
69.0336	73
71.0475	81
73.0281	89
92.0233	103
94.0376	124
109.0475	140
117.0514	159
119.0315	731
136.0584	999
