Mass spectrum: 3-Sulfinoalanine; LC-ESI-ITFT; MS2; CE: 40;  [M-H]-
Name: 3-Sulfinoalanine
Class: Organic acids and derivatives; Carboxylic acids and derivatives; Amino acids, peptides, and analogues
Formula: C3H7NO4S
Exact mass: 153.00958
SMILES: C([C@@H](C(=O)O)N)S(=O)=O
InChI: InChI=1S/C3H7NO4S/c4-2(3(5)6)1-9(7)8/h2,9H,1,4H2,(H,5,6)/t2-/m0/s1
Instrument: Thermo Scientific Q-Exactive Focus
Instrument type: LC-ESI-ITFT
Ms type: MS2
Ion mode: NEGATIVE
Ionization: ESI
Collision energy: 40
Column name: Acquity CSHC18
Retention time: 1.481 min
Base peak: 152.00230
Precursor m/z: 152.00230
Precursor type: [M-H]-
m/z	relative intensity
63.9612	999
79.4645	14
81.2348	14
88.0391	35
93.7562	14
102.2557	15
125.1112	14
129.6175	14
160.2874	14
171.3835	16
