Mass spectrum: MELIBIOSE; LC-ESI-QFT; MS2; CE: 30eV;  [M-H]-
Name: MELIBIOSE
Class: NA
Formula: C12H22O11
Exact mass: 342.11621
SMILES: OC[C@H]1O[C@H](OC[C@H]2OC(O)[C@H](O)[C@@H](O)[C@@H]2O)[C@H](O)[C@@H](O)[C@H]1O
InChI: InChI=1S/C12H22O11/c13-1-3-5(14)8(17)10(19)12(23-3)21-2-4-6(15)7(16)9(18)11(20)22-4/h3-20H,1-2H2/t3-,4-,5+,6-,7+,8+,9-,10-,11?,12+/m1/s1
Instrument: Q-Exactive Orbitrap, Thermo Scientfic; Ultimate 3000 HPLC, Thermo Scientfic
Instrument type: LC-ESI-QFT
Ms type: MS2
Ion mode: NEGATIVE
Ionization: ESI
Collision energy: 30eV
Column name: Acquity CSHC18
Retention time: 0.584 min
Base peak: 341.1089
Precursor m/z: 341.1089
Precursor type: [M-H]-
Precursor intensity: 111
m/z	relative intensity
52.7798	7
55.5175	6
56.3023	6
57.5448	6
58.7726	7
59.0124	649
59.4192	7
59.6932	6
61.8972	5
68.7561	6
71.0123	456
72.0158	7
73.028	68
83.0123	15
85.028	32
87.0073	17
89.0229	999
90.0024	6
90.0262	13
92.2052	6
94.408	6
95.0123	28
96.0177	7
97.0278	9
98.3978	6
101.0229	581
101.3728	6
102.9475	24
112.1309	6
113.0229	251
114.9599	7
119.0336	154
120.0368	8
127.8689	13
131.0336	41
143.0337	29
146.9375	39
148.9088	8
149.0444	13
149.9423	6
151.028	6
161.0442	53
166.2422	7
179.0552	79
183.8781	8
185.8748	8
199.1696	8
221.0661	371
224.8607	14
239.8392	7
266.3109	7
267.9449	80
268.8506	12
269.942	10
305.9167	9
