Mass spectrum: 4-Aminohippuric acid; LC-ESI-ITFT; MS2; CE: 40;  [M-H]-
Name: 4-Aminohippuric acid
Class: Benzenoids; Benzene and substituted derivatives; Benzoic acids and derivatives
Formula: C9H10N2O3
Exact mass: 194.06914
SMILES: NC1=CC=C(C=C1)C(=O)NCC(O)=O
InChI: InChI=1S/C9H10N2O3/c10-7-3-1-6(2-4-7)9(14)11-5-8(12)13/h1-4H,5,10H2,(H,11,14)(H,12,13)
Instrument: Thermo Scientific Q-Exactive Focus
Instrument type: LC-ESI-ITFT
Ms type: MS2
Ion mode: NEGATIVE
Ionization: ESI
Collision energy: 40
Column name: Acquity CSHC18
Retention time: 1.480 min
Base peak: 193.06187
Precursor m/z: 193.06187
Precursor type: [M-H]-
m/z	relative intensity
53.445	435
75.7158	492
89.7442	475
92.0493	636
92.5132	999
124.6396	506
164.9152	598
186.8129	498
190.305	445
197.2253	509
