Mass spectrum: Ile-Tyr; LC-ESI-QTOF; MS2; CE: 15.00;  [M-H]-
Name: Ile-Tyr
Class: NA
Formula: C15H22N2O4
Exact mass: 294.1580
SMILES: CCC(C)C(C(=O)NC(CC1=CC=C(C=C1)O)C(=O)O)N
InChI: InChI=1S/C15H22N2O4/c1-3-9(2)13(16)14(19)17-12(15(20)21)8-10-4-6-11(18)7-5-10/h4-7,9,12-13,18H,3,8,16H2,1-2H3,(H,17,19)(H,20,21)
Instrument: Bruker MicrOTOF-Q
Instrument type: LC-ESI-QTOF
Ms type: MS2
Ion mode: NEGATIVE
Ionization: ESI
Collision energy: 15.00
Column name: Acquity CSHC18
Retention time: NA
Base peak: 293.1507
Precursor m/z: 293.1507
Precursor type: [M-H]-
m/z	relative intensity
119.05	248
129.1	999
163.04	115
180.07	208
249.16	583
293.15	424
294.15	118
