Mass spectrum: BW 246C; ESI-TOF; MS2; CE: 6.0000000;  [M+H]+
Name: BW 246C
Class: NA
Formula: C19H32N2O5
Exact mass: 368.23112
SMILES: [H]N(C(N(CCC(O)C1CCCCC1)[C@@H]2CCCCCCC(O)=O)=O)C2=O
InChI: InChI=1S/C19H32N2O5/c22-16(14-8-4-3-5-9-14)12-13-21-15(18(25)20-19(21)26)10-6-1-2-7-11-17(23)24/h14-16,22H,1-13H2,(H,23,24)(H,20,25,26)/t15-,16?/m1/s1
Instrument: waters xevo g2 TOF
Instrument type: ESI-TOF
Ms type: MS2
Ion mode: POSITIVE
Ionization: ESI
Collision energy: 6.0000000
Column name: Acquity CSHC18
Retention time: 3.369 min
Base peak: 369.23912
Precursor m/z: 369.23912
Precursor type: [M+H]+
m/z	relative intensity
123.1182	15
180.1356	7
195.1025	82
195.5931	15
204.0996	3
204.6003	6
211.1082	155
212.1122	17
225.1254	2
228.1911	2
229.1199	85
230.1851	5
315.2064	28
333.2177	426
334.2205	66
335.2246	6
339.065	10
340.0688	4
351.2286	999
352.231	216
353.2332	25
369.2393	476
370.242	105
