Mass spectrum: Protopine; ESI-QTOF; MS2; CE: 1, 35, 60;  [M+H]+
Name: Protopine
Class: Benzylisoquinoline alkaloid
Formula: C20H19NO5
Exact mass: 353.1263
SMILES: CN1CCC2=CC3=C(C=C2C(=O)CC4=C(C1)C5=C(C=C4)OCO5)OCO3
InChI: InChI=1S/C20H19NO5/c1-21-5-4-13-7-18-19(25-10-24-18)8-14(13)16(22)6-12-2-3-17-20(15(12)9-21)26-11-23-17/h2-3,7-8H,4-6,9-11H2,1H3
Instrument: AB Sciex TripleToF 5500
Instrument type: ESI-QTOF
Ms type: MS2
Ion mode: POSITIVE
Ionization: ESI
Collision energy: 1, 35, 60
Column name: Acquity CSHC18
Retention time: 5.563 min
Base peak: 354.1323
Precursor m/z: 354.1323
Precursor type: [M+H]+
Precursor intensity: 595654.4
m/z	relative intensity
131.0544	91
159.0549	126
164.0531	217
165.0619	273
177.0621	331
205.066	343
217.0644	410
237.0717	530
245.0523	574
247.0743	678
293.0689	908
353.0278	999
