Mass spectrum: BIOTIN; LC-ESI-QFT; MS2; CE: 30eV;  [M+H]+
Name: BIOTIN
Class: NA
Formula: C10H16N2O3S
Exact mass: 244.08816
SMILES: [H][C@]12CS[C@@H](CCCCC(O)=O)[C@@]1([H])NC(=O)N2
InChI: InChI=1S/C10H16N2O3S/c13-8(14)4-2-1-3-7-9-6(5-16-7)11-10(15)12-9/h6-7,9H,1-5H2,(H,13,14)(H2,11,12,15)/t6-,7-,9-/m0/s1
Instrument: Q-Exactive Orbitrap, Thermo Scientfic; Ultimate 3000 HPLC, Thermo Scientfic
Instrument type: LC-ESI-QFT
Ms type: MS2
Ion mode: POSITIVE
Ionization: ESI
Collision energy: 30eV
Column name: Acquity CSHC18
Retention time: 6.228 min
Base peak: 245.0954
Precursor m/z: 245.0954
Precursor type: [M+H]+
Precursor intensity: 198
m/z	relative intensity
50.4323	6
58.9032	6
61.0403	16
62.8656	6
63.0914	8
68.8528	8
72.5202	7
74.0969	9
75.3669	7
86.2345	7
91.8535	7
95.0956	8
97.0109	15
97.04	138
105.0702	14
105.2127	7
113.0421	11
121.0648	15
121.9509	7
123.0265	75
123.9995	7
125.042	11
133.0644	10
139.0577	47
143.0267	27
146.4349	8
149.0421	17
150.0913	20
151.0863	10
161.9942	7
166.0686	134
167.0525	160
181.0965	11
182.063	8
184.0791	140
185.0746	10
185.0821	10
192.0479	38
193.0974	17
199.09	143
200.1959	9
201.3248	8
209.0742	265
210.0583	8
228.0883	517
245.0952	999
246.0983	39
