Mass spectrum: 6-alpha-Prostaglandin I1; ESI-TOF; MS2; CE: 6.0000000;  [M+H]+
Name: 6-alpha-Prostaglandin I1
Class: NA
Formula: C20H34O5
Exact mass: 354.24062
SMILES: CCCCCC(O)/C=C/[C@H]1C(O)CC2O[C@H](CCCCC(=O)O)CC12
InChI: InChI=1S/C20H34O5/c1-2-3-4-7-14(21)10-11-16-17-12-15(8-5-6-9-20(23)24)25-19(17)13-18(16)22/h10-11,14-19,21-22H,2-9,12-13H2,1H3,(H,23,24)/b11-10+/t14?,15-,16-,17?,18?,19?/m1/s1
Instrument: waters xevo g2 TOF
Instrument type: ESI-TOF
Ms type: MS2
Ion mode: POSITIVE
Ionization: ESI
Collision energy: 6.0000000
Column name: Acquity CSHC18
Retention time: 3.753 min
Base peak: 355.24862
Precursor m/z: 355.24862
Precursor type: [M+H]+
m/z	relative intensity
105.071	8
119.0869	43
127.9554	5
129.0717	3
133.1032	15
161.1311	6
163.1501	5
169.0168	16
171.1187	3
173.1337	31
175.149	111
176.1518	10
179.0888	81
185.1337	25
187.1486	14
188.0971	32
188.5985	24
189.1653	401
190.1678	61
191.1456	33
193.159	20
199.1482	13
203.1425	6
207.1758	79
209.126	10
217.111	13
227.139	4
231.1382	26
232.1411	3
239.1945	4
255.2101	16
257.1881	26
259.2087	6
275.2013	104
276.2026	13
277.1111	10
283.2057	107
284.2117	19
291.2318	21
293.2125	122
294.2143	17
301.2168	834
302.2206	193
303.2273	31
304.2327	5
307.2216	7
311.1874	4
317.2101	11
319.228	999
320.2312	190
321.2387	50
335.2208	26
337.2378	422
338.2401	7
356.7119	29
