Mass spectrum: GLUCONATE; LC-ESI-QTOF; MS2; CE: 20;  [M-H]-
Name: GLUCONATE
Class: NA
Formula: C6H12O7
Exact mass: 196.05830
SMILES: OC[C@@H](O)[C@@H](O)[C@H](O)[C@@H](O)C(O)=O
InChI: InChI=1S/C6H12O7/c7-1-2(8)3(9)4(10)5(11)6(12)13/h2-5,7-11H,1H2,(H,12,13)/t2-,3-,4+,5-/m1/s1
Instrument: Agilent 6530Â Q-TOF LC/MS
Instrument type: LC-ESI-QTOF
Ms type: MS2
Ion mode: NEGATIVE
Ionization: ESI
Collision energy: 20
Column name: NA
Retention time: 0.200 min
Base peak: 195.05309
Precursor m/z: 195.05309
Precursor type: [M-H]-
Precursor intensity: 115
m/z	relative intensity
43.0213	106
44.9994	115
47.0161	124
57.0193	164
59.027	167
71.021	168
75.0267	181
85.0306	196
87.0171	202
99.0152	227
129.0248	586
195.0572	999
