Mass spectrum: Isomaltose; ESI-TOF; MS2; CE: 6.0000000;  [M+H]+
Name: Isomaltose
Class: NA
Formula: C12H22O11
Exact mass: 342.11621
SMILES: OCC1OC(OCC2OC(O)C(O)C(O)C2O)C(O)C(O)C1O
InChI: InChI=1S/C12H22O11/c13-1-3-5(14)8(17)10(19)12(23-3)21-2-4-6(15)7(16)9(18)11(20)22-4/h3-20H,1-2H2
Instrument: waters xevo g2 TOF
Instrument type: ESI-TOF
Ms type: MS2
Ion mode: POSITIVE
Ionization: ESI
Collision energy: 6.0000000
Column name: Acquity CSHC18
Retention time: 0.558 min
Base peak: 343.12421
Precursor m/z: 343.12421
Precursor type: [M+H]+
m/z	relative intensity
72.9376	2
85.0289	347
97.0285	195
99.9689	2
111.9689	29
127.0391	500
138.99	74
138.9903	68
145.0498	608
163.0604	234
173.9607	2
174.9688	2
178.1222	29
185.9627	2
186.9693	2
198.9686	2
233.9831	2
277.0008	2
325.1135	613
326.1192	72
337.0219	101
360.152	468
361.1534	57
362.0951	50
365.106	999
366.1081	2
396.0361	998
397.0397	173
456.0565	151
487.1655	37
707.2206	140
738.1529	167
739.1543	58
