Mass spectrum: mevalonate-P; LC-ESI-QTOF; MS2; CE: -10, -35, -60V;  [M-H]-
Name: mevalonate-P
Class: NA
Formula: C6H13O7P
Exact mass: 228.0399
SMILES: CC(CCOP(=O)(O)O)(CC(=O)O)O
InChI: InChI=1S/C6H13O7P/c1-6(9,4-5(7)8)2-3-13-14(10,11)12/h9H,2-4H2,1H3,(H,7,8)(H2,10,11,12)
Instrument: TripleToF 5600; Sciex
Instrument type: LC-ESI-QTOF
Ms type: MS2
Ion mode: NEGATIVE
Ionization: ESI
Collision energy: -10, -35, -60V
Column name: Acquity CSHC18
Retention time: 12.097 min
Base peak: 227.0326
Precursor m/z: 227.0326
Precursor type: [M-H]-
Precursor intensity: 5263.81
m/z	relative intensity
78.9589	999
96.9684	304
227.0321	296
