Mass spectrum: LUMICHROME; LC-ESI-QFT; MS2; CE: 30eV;  [M+H]+
Name: LUMICHROME
Class: NA
Formula: C12H10N4O2
Exact mass: 242.08038
SMILES: CC1=CC2=C(C=C1C)N=C3C(=N2)C(=O)NC(=O)N3
InChI: InChI=1S/C12H10N4O2/c1-5-3-7-8(4-6(5)2)14-10-9(13-7)11(17)16-12(18)15-10/h3-4H,1-2H3,(H2,14,15,16,17,18)
Instrument: Q-Exactive Orbitrap, Thermo Scientfic; Ultimate 3000 HPLC, Thermo Scientfic
Instrument type: LC-ESI-QFT
Ms type: MS2
Ion mode: POSITIVE
Ionization: ESI
Collision energy: 30eV
Column name: Acquity CSHC18
Retention time: 7.536 min
Base peak: 243.0877
Precursor m/z: 243.0877
Precursor type: [M+H]+
Precursor intensity: 112
m/z	relative intensity
74.097	1
111.945	1
113.9642	4
116.9664	1
131.9744	1
141.9589	8
153.3178	1
155.0027	2
156.9831	1
159.0129	1
159.9693	21
172.0871	54
173.0711	5
173.0904	2
174.1028	1
177.9568	7
190.0977	5
198.066	5
200.082	23
200.9726	1
216.077	67
218.0927	5
219.0765	1
243.0878	999
244.0735	11
244.0915	74
