Mass spectrum: O-Arachnidonoyl ethanolamine hydrochloride; ESI-TOF; MS2; CE: 0.6458333;  [M+H]+
Name: O-Arachnidonoyl ethanolamine hydrochloride
Class: NA
Formula: C22H37NO2
Exact mass: 347.28243
SMILES: CCCCCC=CCC=CCC=CCC=CCCCC(=O)NCCO
InChI: InChI=1S/C22H37NO2/c1-2-3-4-5-6-7-8-9-10-11-12-13-14-15-16-17-18-19-22(25)23-20-21-24/h6-7,9-10,12-13,15-16,24H,2-5,8,11,14,17-21H2,1H3,(H,23,25)
Instrument: waters xevo g2 TOF
Instrument type: ESI-TOF
Ms type: MS2
Ion mode: POSITIVE
Ionization: ESI
Collision energy: 0.6458333
Column name: Acquity CSHC18
Retention time: 4.353 min
Base peak: 348.29043
Precursor m/z: 348.29043
Precursor type: [M+H]+
m/z	relative intensity
81.0706	464
91.0552	561
93.0709	453
105.0705	505
119.087	780
133.1019	647
269.2257	164
287.2378	72
331.2633	19
348.2891	481
349.2932	108
350.2946	19
370.2717	999
371.2775	183
