Mass spectrum: Uric acid; LC-ESI-ITFT; MS2; CE: 20;  [M-H]-
Name: Uric acid
Class: Organoheterocyclic compounds; Imidazopyrimidines; Purines and purine derivatives
Formula: C5H4N4O3
Exact mass: 168.02834
SMILES: O=C1NC2=C(N1)C(=O)NC(=O)N2
InChI: InChI=1S/C5H4N4O3/c10-3-1-2(7-4(11)6-1)8-5(12)9-3/h(H4,6,7,8,9,10,11,12)
Instrument: Thermo Scientific Q-Exactive Focus
Instrument type: LC-ESI-ITFT
Ms type: MS2
Ion mode: NEGATIVE
Ionization: ESI
Collision energy: 20
Column name: Acquity CSHC18
Retention time: 0.643 min
Base peak: 167.02106
Precursor m/z: 167.02106
Precursor type: [M-H]-
m/z	relative intensity
69.0082	264
92.514	13
96.0191	382
97.0032	83
110.9333	8
123.03	8
124.0141	999
138.9283	7
142.0248	26
167.0201	218
