Mass spectrum: CITICOLINE; LC-ESI-QTOF; MS2; CE: 20;  [M+H]+
Name: CITICOLINE
Class: NA
Formula: C14H26N4O11P2
Exact mass: 488.1073
SMILES: C[N+](C)(C)CCOP([O-])(=O)OP(O)(=O)OC[C@H]1O[C@H]([C@H](O)[C@@H]1O)N1C=CC(N)=NC1=O
InChI: InChI=1S/C14H26N4O11P2/c1-18(2,3)6-7-26-30(22,23)29-31(24,25)27-8-9-11(19)12(20)13(28-9)17-5-4-10(15)16-14(17)21/h4-5,9,11-13,19-20H,6-8H2,1-3H3,(H3-,15,16,21,22,23,24,25)/t9-,11-,12-,13-/m1/s1
Instrument: Agilent 6530Â Q-TOF LC/MS
Instrument type: LC-ESI-QTOF
Ms type: MS2
Ion mode: POSITIVE
Ionization: ESI
Collision energy: 20
Column name: NA
Retention time: 0.200 min
Base peak: 489.11365
Precursor m/z: 489.11365
Precursor type: [M+H]+
Precursor intensity: 71.5
m/z	relative intensity
86.0954	28
104.1042	29
124.9999	41
166.0581	49
184.0717	56
264.037	67
360.057	136
378.063	757
489.1123	999
