Mass spectrum: PHENYLETHANOLAMINE; LC-ESI-QTOF; MS2; CE: 40;  [M+H]+
Name: PHENYLETHANOLAMINE
Class: NA
Formula: C8H11NO
Exact mass: 137.08406
SMILES: NCC(O)C1=CC=CC=C1
InChI: InChI=1S/C8H11NO/c9-6-8(10)7-4-2-1-3-5-7/h1-5,8,10H,6,9H2
Instrument: Agilent 6530Â Q-TOF LC/MS
Instrument type: LC-ESI-QTOF
Ms type: MS2
Ion mode: POSITIVE
Ionization: ESI
Collision energy: 40
Column name: NA
Retention time: 0.200 min
Base peak: 138.09079
Precursor m/z: 138.09079
Precursor type: [M+H]+
Precursor intensity: 43.5
m/z	relative intensity
41.042	19
42.043	21
43.0373	21
50.0223	22
51.051	22
51.1616	23
52.0302	24
55.0258	24
58.1665	25
62.0201	25
63.0284	26
65.0624	26
66.0531	27
75.0331	29
76.0243	29
77.0934	34
77.2459	36
77.445	40
77.8616	41
78.0514	43
80.0514	46
89.0382	48
91.0859	50
92.0539	64
101.0389	68
102.0554	144
103.0856	279
104.0538	369
117.0583	829
118.0743	999
