Mass spectrum: Gossypetin 3,3'-dimethyl ether-1; LC-ESI-QTOF; MS2; CE: 50eV;  [M+H]+
Name: Gossypetin 3,3'-dimethyl ether-1
Class: Flavonol
Formula: C17H14O8
Exact mass: 346.0689
SMILES: COC1=C(C=CC(=C1)C2=C(C(=O)C3=C(O2)C(=C(C=C3O)O)O)OC)O
InChI: InChI=1S/C17H14O8/c1-23-11-5-7(3-4-8(11)18)15-17(24-2)14(22)12-9(19)6-10(20)13(21)16(12)25-15/h3-6,18-21H,1-2H3
Instrument: TIMS-TOF Pro, Bruker Daltonik; Elute UHPLC System, Bruker Daltonik
Instrument type: LC-ESI-QTOF
Ms type: MS2
Ion mode: POSITIVE
Ionization: ESI
Collision energy: 50eV
Column name: Acquity CSHC18
Retention time: 6.892 min
Base peak: 347.0733
Precursor m/z: 347.0733
Precursor type: [M+H]+
Precursor intensity: 70694.5
m/z	relative intensity
65.029	8
84.0204	6
118.0405	10
132.0584	11
151.0219	9
151.0394	35
168.0046	21
181.0164	5
202.0622	7
233.009	7
261.0388	26
273.0371	6
287.0416	6
298.9882	6
314.4195	6
317.0244	10
320.3297	5
323.3554	4
331.0411	10
332.0494	186
333.0533	14
336.2722	5
347.0201	31
347.0733	999
