Mass spectrum: N-ACETYLPHENYLALANINE; LC-ESI-QFT; MS2; CE: 30eV;  [M+H]+
Name: N-ACETYLPHENYLALANINE
Class: NA
Formula: C11H13NO3
Exact mass: 207.08954
SMILES: CC(=O)N[C@@H](CC1=CC=CC=C1)C(O)=O
InChI: InChI=1S/C11H13NO3/c1-8(13)12-10(11(14)15)7-9-5-3-2-4-6-9/h2-6,10H,7H2,1H3,(H,12,13)(H,14,15)/t10-/m0/s1
Instrument: Q-Exactive Orbitrap, Thermo Scientfic; Ultimate 3000 HPLC, Thermo Scientfic
Instrument type: LC-ESI-QFT
Ms type: MS2
Ion mode: POSITIVE
Ionization: ESI
Collision energy: 30eV
Column name: Acquity CSHC18
Retention time: 6.630 min
Base peak: 208.0968
Precursor m/z: 208.0968
Precursor type: [M+H]+
Precursor intensity: 114
m/z	relative intensity
50.6762	1
51.5689	1
61.3368	1
81.2994	1
86.2258	1
90.8373	1
91.0545	5
93.0703	5
102.8847	1
103.0546	18
104.5541	1
107.0495	6
121.0844	121
131.0494	29
138.8995	1
148.076	6
149.0599	54
150.0632	2
158.219	1
162.0915	409
163.0948	23
166.0864	999
167.0898	49
190.0863	7
208.0968	2
