Mass spectrum: deoxy-TDP; LC-ESI-QTOF; MS2; CE: -10, -35, -60V;  [M-H]-
Name: deoxy-TDP
Class: NA
Formula: C10H16N2O11P2
Exact mass: 402.0229
SMILES: CC1=CN(C(=O)NC1=O)C2CC(C(O2)COP(=O)(O)OP(=O)(O)O)O
InChI: InChI=1S/C10H16N2O11P2/c1-5-3-12(10(15)11-9(5)14)8-2-6(13)7(22-8)4-21-25(19,20)23-24(16,17)18/h3,6-8,13H,2,4H2,1H3,(H,19,20)(H,11,14,15)(H2,16,17,18)
Instrument: TripleToF 5600; Sciex
Instrument type: LC-ESI-QTOF
Ms type: MS2
Ion mode: NEGATIVE
Ionization: ESI
Collision energy: -10, -35, -60V
Column name: Acquity CSHC18
Retention time: 13.037 min
Base peak: 401.0208
Precursor m/z: 401.0208
Precursor type: [M-H]-
Precursor intensity: 390817.3
m/z	relative intensity
78.9596	343
96.9706	23
125.0371	18
158.9271	570
176.9348	50
232.9756	3
238.9498	10
256.9618	122
274.9793	174
275.9704	10
303.0384	19
321.0717	5
383.011	144
384.0091	15
398.9999	12
399.7617	14
401.0244	999
