Mass spectrum: 2',4'-DIHYDROXYACETOPHENONE; LC-ESI-QFT; MS2; CE: 30eV;  [M+H]+
Name: 2',4'-DIHYDROXYACETOPHENONE
Class: NA
Formula: C8H8O3
Exact mass: 152.04734
SMILES: CC(=O)C1=C(O)C=C(O)C=C1
InChI: InChI=1S/C8H8O3/c1-5(9)7-3-2-6(10)4-8(7)11/h2-4,10-11H,1H3
Instrument: Q-Exactive Orbitrap, Thermo Scientfic; Ultimate 3000 HPLC, Thermo Scientfic
Instrument type: LC-ESI-QFT
Ms type: MS2
Ion mode: POSITIVE
Ionization: ESI
Collision energy: 30eV
Column name: Acquity CSHC18
Retention time: 6.617 min
Base peak: 153.0546
Precursor m/z: 153.0546
Precursor type: [M+H]+
Precursor intensity: 145
m/z	relative intensity
50.7358	2
51.7876	2
53.9398	4
57.2599	2
63.3592	2
64.806	2
71.398	2
75.5354	2
75.7804	2
76.5743	2
78.9949	11
79.0547	3
80.1095	2
82.7987	2
93.0704	10
95.0496	4
95.086	3
102.9648	2
107.0495	26
107.0859	5
108.0531	3
111.0445	15
111.9686	13
112.9766	9
117.2199	2
121.0286	3
121.3706	2
125.0602	4
125.0968	2
129.9917	9
131.4834	2
135.0442	188
136.0474	10
139.052	37
153.0547	999
153.0674	88
153.0905	9
153.1275	5
154.0581	44
