Mass spectrum: 8-iso Prostaglandin F1-beta; ESI-TOF; MS2; CE: 0.6458333;  [M+H]+
Name: 8-iso Prostaglandin F1-beta
Class: NA
Formula: C20H36O5
Exact mass: 356.25627
SMILES: CCCCC[C@H](O)/C=C/[C@H]1[C@H](O)C[C@@H](O)[C@H]1CCCCCCC(O)=O
InChI: InChI=1S/C20H36O5/c1-2-3-6-9-15(21)12-13-17-16(18(22)14-19(17)23)10-7-4-5-8-11-20(24)25/h12-13,15-19,21-23H,2-11,14H2,1H3,(H,24,25)/b13-12+/t15-,16-,17+,18+,19+/m0/s1
Instrument: waters xevo g2 TOF
Instrument type: ESI-TOF
Ms type: MS2
Ion mode: POSITIVE
Ionization: ESI
Collision energy: 0.6458333
Column name: Acquity CSHC18
Retention time: 3.470 min
Base peak: 357.26427
Precursor m/z: 357.26427
Precursor type: [M+H]+
m/z	relative intensity
67.0551	67
79.0546	132
81.0709	241
91.0558	373
93.0705	286
95.0867	303
99.0803	13
105.0711	646
107.0683	238
109.1022	96
117.0706	139
119.087	535
120.0895	42
121.1011	159
123.1169	29
125.0958	17
129.0716	85
131.0871	378
133.1025	373
135.1182	93
141.07	20
143.0864	74
145.1017	209
147.1182	184
148.1215	16
149.1343	44
155.0835	23
157.1023	46
159.1181	130
161.1337	196
163.1117	18
169.1005	37
171.0956	61
173.1325	82
175.1488	161
177.1641	25
183.1176	42
185.1344	53
187.1484	121
189.1638	164
191.1429	20
197.1341	35
201.1642	44
209.084	13
211.0676	15
219.1368	17
233.1203	54
241.1956	19
247.1356	46
259.2068	12
265.2141	13
277.2169	41
285.2215	69
303.2325	999
304.2351	184
305.245	56
315.1984	28
320.1395	54
321.2419	38
330.1279	25
333.1741	736
341.1793	62
346.1487	14
348.1426	249
349.1441	155
359.1859	147
