Mass spectrum: Fraxetin; LC-ESI-QTOF; MS2; CE: 50eV;  [M+H]+
Name: Fraxetin
Class: Coumarin
Formula: C10H8O5
Exact mass: 208.0372
SMILES: COC1=C(C(=C2C(=C1)C=CC(=O)O2)O)O
InChI: InChI=1S/C10H8O5/c1-14-6-4-5-2-3-7(11)15-10(5)9(13)8(6)12/h2-4,12-13H,1H3
Instrument: TIMS-TOF Pro, Bruker Daltonik; Elute UHPLC System, Bruker Daltonik
Instrument type: LC-ESI-QTOF
Ms type: MS2
Ion mode: POSITIVE
Ionization: ESI
Collision energy: 50eV
Column name: Acquity CSHC18
Retention time: 4.708 min
Base peak: 209.0438
Precursor m/z: 209.0438
Precursor type: [M+H]+
Precursor intensity: 341238.2
m/z	relative intensity
35.9808	2
39.0214	2
51.4981	2
53.0016	4
53.0386	6
54.0451	4
61.9638	2
63.0224	22
64.0315	17
65.0384	19
77.0376	9
81.0333	10
82.0404	27
91.9073	1
92.026	55
93.0333	3
107.0467	1
109.0273	4
110.0119	2
110.0352	16
111.0394	2
118.0362	1
120.0199	14
121.0284	17
123.0458	4
131.0113	1
135.0444	38
136.0474	1
138.0311	13
149.0214	16
150.0283	6
151.0386	2
153.0537	58
154.0583	11
161.3038	1
163.0394	151
164.0418	10
165.0166	3
165.0573	4
166.027	30
167.0282	2
176.9988	1
177.0199	6
181.0491	50
193.0143	4
194.0207	318
195.0254	17
209.0048	2
209.0438	999
209.4546	7
