Mass spectrum: Myricitrin; LC-ESI-ITFT; MS2; CE: 0.3;  [M-H]-
Name: Myricitrin
Class: flavonol glycosides
Formula: C21H20O12
Exact mass: 464.0955
SMILES: CC1C(C(C(C(O1)OC2=C(OC3=CC(=CC(=C3C2=O)O)O)C4=CC(=C(C(=C4)O)O)O)O)O)O
InChI: InChI=1S/C21H20O12/c1-6-14(26)17(29)18(30)21(31-6)33-20-16(28)13-9(23)4-8(22)5-12(13)32-19(20)7-2-10(24)15(27)11(25)3-7/h2-6,14,17-18,21-27,29-30H,1H3
Instrument: LTQ-Orbitrap XL hybrid mass spectrometer (Thermo Scientific)
Instrument type: LC-ESI-ITFT
Ms type: MS2
Ion mode: NEGATIVE
Ionization: ESI
Collision energy: 0.3
Column name: Acquity CSHC18
Retention time: 5.079 min
Base peak: 463.0872
Precursor m/z: 463.0872
Precursor type: [M-H]-
Precursor intensity: 17290080
m/z	relative intensity
129.3217	2
141.1408	1
151.0036	12
161.692	2
167.0894	3
168.6874	1
171.9924	2
176.9867	2
178.9986	18
180.7799	2
197.3177	2
200.0474	2
204.4048	2
207.3112	2
209.6835	2
216.5337	3
218.4187	2
220.0691	2
222.1309	2
224.773	2
238.2531	2
241.9029	2
246.9694	2
259.607	2
262.8286	2
263.6921	2
271.0235	8
274.7457	2
281.0367	2
281.6982	2
282.5552	3
284.3027	2
286.7784	2
288.26	2
289.0362	3
300.0284	6
301.0336	16
313.5927	4
316.0218	999
316.0973	7
316.1113	4
316.165	4
316.1994	5
316.9348	2
316.9544	2
317.0294	562
317.0897	4
317.654	2
318.0332	16
321.9595	2
322.3238	2
325.7838	3
329.0303	5
331.4072	3
332.0968	2
337.0551	13
340.8523	2
343.312	2
346.7973	2
349.0444	3
357.8913	3
359.0397	20
359.7567	4
361.6514	3
362.2663	3
365.4501	3
367.2075	3
368.6251	3
371.9843	2
375.8049	3
383.9652	3
386.8646	3
388.0256	3
389.5906	3
393.2731	3
409.4793	2
410.4794	3
411.6656	2
414.8345	3
420.4828	2
421.3286	4
422.4352	3
424.3144	3
430.5201	4
433.2074	3
434.3629	4
434.9171	3
434.9705	3
436.7291	2
436.7539	2
438.7278	3
439.0511	3
443.0581	3
445.0719	8
446.2242	3
448.0509	3
448.2115	3
451.1314	3
463.0748	3
