Mass spectrum: Lyso PAF (from Heart PC); ESI-TOF; MS2; CE: 0.6458333;  [M+H]+
Name: Lyso PAF (from Heart PC)
Class: NA
Formula: C24H52NO6P
Exact mass: 481.35323
SMILES: [H]OC([H])(C([H])([H])OC([H])([H])C([H])([H])C([H])([H])C([H])([H])C([H])([H])C([H])([H])C([H])([H])C([H])([H])C([H])([H])C([H])([H])C([H])([H])C([H])([H])C([H])([H])C([H])([H])C([H])([H])C([H])([H])[H])C([H])([H])OP(=O)([O-])OC([H])([H])C([H])([H])[N+](C([H])([H])[H])(C([H])([H])[H])C([H])([H])[H]
InChI: InChI=1S/C24H52NO6P/c1-5-6-7-8-9-10-11-12-13-14-15-16-17-18-20-29-22-24(26)23-31-32(27,28)30-21-19-25(2,3)4/h24,26H,5-23H2,1-4H3
Instrument: waters xevo g2 TOF
Instrument type: ESI-TOF
Ms type: MS2
Ion mode: POSITIVE
Ionization: ESI
Collision energy: 0.6458333
Column name: Acquity CSHC18
Retention time: 7.545 min
Base peak: 482.36123
Precursor m/z: 482.36123
Precursor type: [M+H]+
m/z	relative intensity
71.0866	5
86.0974	58
102.0924	5
104.1079	999
105.1111	66
111.5153	3
112.9915	13
120.5199	20
125.0007	28
129.5252	16
136.9319	7
138.53	4
148.5327	11
157.5292	6
162.9469	29
166.063	5
184.0735	69
185.0773	8
192.9581	27
208.0038	3
232.6453	5
236.9844	4
260.6581	31
261.1593	11
322.6532	3
326.011	3
417.2076	10
445.2696	105
446.2725	25
461.235	9
464.3491	27
465.3512	7
468.7564	3
471.7964	14
472.3001	5
482.3605	312
483.3641	94
