Mass spectrum: Gallic acid; LC-ESI-ITFT; MS2; CE: 40;  [M-H]-
Name: Gallic acid
Class: Benzenoids; Benzene and substituted derivatives; Benzoic acids and derivatives
Formula: C7H6O5
Exact mass: 170.02152
SMILES: OC(=O)C1=CC(O)=C(O)C(O)=C1
InChI: InChI=1S/C7H6O5/c8-4-1-3(7(11)12)2-5(9)6(4)10/h1-2,8-10H,(H,11,12)
Instrument: Thermo Scientific Q-Exactive Focus
Instrument type: LC-ESI-ITFT
Ms type: MS2
Ion mode: NEGATIVE
Ionization: ESI
Collision energy: 40
Column name: Acquity CSHC18
Retention time: 1.477 min
Base peak: 169.01425
Precursor m/z: 169.01425
Precursor type: [M-H]-
m/z	relative intensity
51.0229	111
67.0177	545
69.0333	999
79.0177	149
92.5155	136
95.0126	138
97.0282	163
123.0075	179
124.0154	365
125.0232	113
