Mass spectrum: Kaempferol-3,7,4',5'-O-tetramethylether; LC-ESI-QTOF; MS2; CE: 50eV;  [M+H]+
Name: Kaempferol-3,7,4',5'-O-tetramethylether
Class: Flavonol
Formula: C19H18O7
Exact mass: 358.1053
SMILES: OC1=CC(OC)=CC2=C1C(C(OC)=C(C3=CC(OC)=C(OC)C=C3)O2)=O
InChI: InChI=1S/C19H18O7/c1-22-11-8-12(20)16-15(9-11)26-18(19(25-4)17(16)21)10-5-6-13(23-2)14(7-10)24-3/h5-9,20H,1-4H3
Instrument: TIMS-TOF Pro, Bruker Daltonik; Elute UHPLC System, Bruker Daltonik
Instrument type: LC-ESI-QTOF
Ms type: MS2
Ion mode: POSITIVE
Ionization: ESI
Collision energy: 50eV
Column name: Acquity CSHC18
Retention time: 10.519 min
Base peak: 359.1116
Precursor m/z: 359.1116
Precursor type: [M+H]+
Precursor intensity: 76380.13
m/z	relative intensity
79.0412	2
97.0305	4
121.017	2
121.0292	7
135.3976	4
145.0417	2
161.0528	4
165.0562	5
167.0332	9
178.0358	2
179.0344	6
195.0423	3
212.9956	3
214.0644	2
228.0609	3
233.0089	3
241.0499	5
243.0592	9
254.0445	3
256.0513	4
258.0481	19
265.8543	3
271.0116	3
273.037	5
273.0737	9
278.5332	2
283.0529	6
285.0718	6
286.045	11
291.0092	3
298.0451	7
299.0484	12
301.0217	7
301.0685	58
302.0742	9
313.0704	5
316.0871	3
329.0176	4
329.0636	34
343.0795	17
344.0647	7
344.0883	204
344.7538	3
345.0926	30
346.1043	4
359.0424	9
359.1116	999
