Mass spectrum: Pantothenic acid; LC-ESI-QTOF; MS2; CE: 20-40eV;  [M+H]+
Name: Pantothenic acid
Class: Amino acids and derivatives
Formula: C9H17NO5
Exact mass: 219.1107
SMILES: CC(C)(CO)C(C(=NCCC(=O)O)O)(O)[H]
InChI: InChI=1S/C9H17NO5/c1-9(2,5-11)7(14)8(15)10-4-3-6(12)13/h7,11,14H,3-5H2,1-2H3,(H,10,15)(H,12,13)
Instrument: Impact II, Bruker; Dionex 3000, Thermo Scientific
Instrument type: LC-ESI-QTOF
Ms type: MS2
Ion mode: POSITIVE
Ionization: ESI
Collision energy: 20-40eV
Column name: Acquity CSHC18
Retention time: 1.738 min
Base peak: 220.1179
Precursor m/z: 220.1179
Precursor type: [M+H]+
Precursor intensity: 58773.63
m/z	relative intensity
95.0484	367
97.0042	48
97.0279	49
97.065	52
97.0815	47
98.023	999
99.025	50
99.08	46
100.0384	241
101.0938	78
103.0747	526
104.0781	47
104.1072	213
105.038	86
105.0715	46
110.0718	46
113.0602	206
115.0766	70
116.0339	492
124.0143	73
124.076	400
130.0637	87
131.0719	96
142.0849	256
150.0527	47
160.0993	91
162.0554	107
166.0867	120
184.0972	865
185.1037	76
202.1076	585
203.0044	47
203.1126	92
220.1178	211
220.1809	53
