Mass spectrum: Trimethylglycine; LC-ESI-QTOF; MS2; CE: 15.00;  [M+H]+
Name: Trimethylglycine
Class: NA
Formula: C5H11NO2
Exact mass: 117.0790
SMILES: C[N+](C)(C)CC(=O)[O-]
InChI: InChI=1S/C5H11NO2/c1-6(2,3)4-5(7)8/h4H2,1-3H3
Instrument: Bruker MicrOTOF-Q
Instrument type: LC-ESI-QTOF
Ms type: MS2
Ion mode: POSITIVE
Ionization: ESI
Collision energy: 15.00
Column name: Acquity CSHC18
Retention time: NA
Base peak: 118.0863
Precursor m/z: 118.0863
Precursor type: [M+H]+
m/z	relative intensity
62.1093	1
93.3224	1
117.894	1
118.0845	999
118.2307	2
118.2954	2
118.3417	2
118.3875	2
118.4656	1
118.6144	1
118.7055	1
118.9821	1
119.0881	59
119.583	1
120.1036	2
126.1866	1
155.6801	1
253.2189	1
