Mass spectrum: 8-iso Prostaglandin F2-alpha; ESI-TOF; MS2; CE: 0.6458333;  [M+H]+
Name: 8-iso Prostaglandin F2-alpha
Class: NA
Formula: C20H34O5
Exact mass: 354.24062
SMILES: O[C@@H]1[C@@H](C/C=C\CCCC(O)=O)[C@@H](/C=C/[C@@H](O)CCCCC)[C@H](O)C1
InChI: InChI=1S/C20H34O5/c1-2-3-6-9-15(21)12-13-17-16(18(22)14-19(17)23)10-7-4-5-8-11-20(24)25/h4,7,12-13,15-19,21-23H,2-3,5-6,8-11,14H2,1H3,(H,24,25)/b7-4-,13-12+/t15-,16-,17+,18-,19+/m0/s1
Instrument: waters xevo g2 TOF
Instrument type: ESI-TOF
Ms type: MS2
Ion mode: POSITIVE
Ionization: ESI
Collision energy: 0.6458333
Column name: Acquity CSHC18
Retention time: 3.466 min
Base peak: 355.24862
Precursor m/z: 355.24862
Precursor type: [M+H]+
m/z	relative intensity
81.07	214
91.0549	82
93.071	396
95.087	173
97.1001	34
101.0615	31
105.0719	593
107.0864	141
109.104	67
111.0791	25
117.0705	523
118.0751	24
119.0868	386
121.1031	146
129.0704	897
131.0867	999
132.0896	79
133.1024	296
135.0807	94
141.0722	126
142.0777	74
143.0864	602
145.1023	616
146.1058	77
147.1179	192
155.0874	282
156.0971	35
157.1024	664
158.1075	60
159.1181	205
161.1339	99
163.1116	29
169.1017	393
170.1059	40
171.1184	534
173.1322	163
174.1367	30
175.1127	142
182.0038	205
183.0987	244
185.1345	307
187.1143	204
193.1222	49
195.111	149
197.1312	83
199.1126	294
201.1641	109
203.1245	55
210.1379	22
213.1296	156
227.1804	45
233.1535	23
239.1785	226
241.1961	255
255.1896	21
256.2119	24
257.1906	198
275.2001	164
277.2076	23
283.2056	481
285.2247	45
301.1766	569
302.2185	205
303.2282	103
314.1235	22
317.2129	64
319.227	164
331.158	949
332.1626	124
337.2373	23
346.124	434
347.1313	852
348.1344	139
349.1318	180
350.1277	33
351.1156	31
353.1218	23
354.1249	47
355.1319	125
