Mass spectrum: 12:0 DG; ESI-TOF; MS2; CE: 0.6458333;  [M+H]+
Name: 12:0 DG
Class: NA
Formula: C27H52O5
Exact mass: 456.38147
SMILES: [H]OC([H])([H])C([H])(OC(=O)C([H])([H])C([H])([H])C([H])([H])C([H])([H])C([H])([H])C([H])([H])C([H])([H])C([H])([H])C([H])([H])C([H])([H])C([H])([H])[H])C([H])([H])OC(=O)C([H])([H])C([H])([H])C([H])([H])C([H])([H])C([H])([H])C([H])([H])C([H])([H])C([H])([H])C([H])([H])C([H])([H])C([H])([H])[H]
InChI: InChI=1S/C27H52O5/c1-3-5-7-9-11-13-15-17-19-21-26(29)31-24-25(23-28)32-27(30)22-20-18-16-14-12-10-8-6-4-2/h25,28H,3-24H2,1-2H3
Instrument: waters xevo g2 TOF
Instrument type: ESI-TOF
Ms type: MS2
Ion mode: POSITIVE
Ionization: ESI
Collision energy: 0.6458333
Column name: Acquity CSHC18
Retention time: 10.353 min
Base peak: 457.38947
Precursor m/z: 457.38947
Precursor type: [M+H]+
m/z	relative intensity
57.0717	24
69.0709	14
71.0867	95
81.0708	111
83.0867	109
85.1022	157
89.0606	29
95.0862	382
96.09	24
97.1021	58
103.076	22
109.1022	327
110.1052	15
112.9918	24
123.1182	76
131.002	21
165.165	29
183.1751	396
184.1795	51
201.1857	79
239.1325	999
240.1365	133
254.0992	19
255.1041	35
257.1772	583
258.2154	191
259.2174	16
279.1941	25
295.1582	54
313.1689	136
314.1724	20
324.1362	14
329.1411	50
331.1417	22
385.2783	38
385.7809	17
393.2635	10
394.2663	22
395.2641	15
439.3444	376
440.3472	116
441.3844	32
