Mass spectrum: Ellagic acid; LC-ESI-QTOF; MS2; CE: 15.07 / 15.08;  [M-H]-
Name: Ellagic acid
Class: NA
Formula: C14H6O8
Exact mass: 302.0063
SMILES: C1=C2C3=C(C(=C1O)O)OC(=O)C4=CC(=C(C(=C43)OC2=O)O)O
InChI: InChI=1S/C14H6O8/c15-5-1-3-7-8-4(14(20)22-11(7)9(5)17)2-6(16)10(18)12(8)21-13(3)19/h1-2,15-18H
Instrument: Bruker MicrOTOF-Q
Instrument type: LC-ESI-QTOF
Ms type: MS2
Ion mode: NEGATIVE
Ionization: ESI
Collision energy: 15.07 / 15.08
Column name: Acquity CSHC18
Retention time: NA
Base peak: 300.9990
Precursor m/z: 300.9990
Precursor type: [M-H]-
m/z	relative intensity
173.0261	6
185.0221	12
201.0193	37
213.0284	5
228.0076	6
229.0119	51
245.0071	13
257.0047	31
283.995	33
299.9971	10
300.9984	999
302.0014	180
