Mass spectrum: L-Dopa; LC-ESI-ITFT; MS2; CE: 20;  [M-H]-
Name: L-Dopa
Class: Organic acids and derivatives; Carboxylic acids and derivatives; Amino acids, peptides, and analogues
Formula: C9H11NO4
Exact mass: 197.06881
SMILES: N[C@@H](CC1=CC(O)=C(O)C=C1)C(O)=O
InChI: InChI=1S/C9H11NO4/c10-6(9(13)14)3-5-1-2-7(11)8(12)4-5/h1-2,4,6,11-12H,3,10H2,(H,13,14)/t6-/m0/s1
Instrument: Thermo Scientific Q-Exactive Focus
Instrument type: LC-ESI-ITFT
Ms type: MS2
Ion mode: NEGATIVE
Ionization: ESI
Collision energy: 20
Column name: Acquity CSHC18
Retention time: 0.642 min
Base peak: 196.06152
Precursor m/z: 196.06152
Precursor type: [M-H]-
m/z	relative intensity
72.0079	152
74.0235	101
107.0491	79
109.0283	243
122.0361	262
123.044	92
134.0362	67
135.044	999
154.026	35
179.034	54
