Mass spectrum: (R)-Butaprost (free acid); ESI-TOF; MS2; CE: 0.6458333;  [M+H]+
Name: (R)-Butaprost (free acid)
Class: NA
Formula: C23H38O5
Exact mass: 394.27192
SMILES: CCCC1(CCC1)[C@H](O)C/C=C/[C@H]1C(O)CC(=O)C1CCCCCCC(=O)O
InChI: InChI=1S/C23H38O5/c1-2-13-23(14-8-15-23)21(26)11-7-10-18-17(19(24)16-20(18)25)9-5-3-4-6-12-22(27)28/h7,10,17-18,20-21,25-26H,2-6,8-9,11-16H2,1H3,(H,27,28)/b10-7+/t17?,18-,20?,21-/m1/s1
Instrument: waters xevo g2 TOF
Instrument type: ESI-TOF
Ms type: MS2
Ion mode: POSITIVE
Ionization: ESI
Collision energy: 0.6458333
Column name: Acquity CSHC18
Retention time: 4.217 min
Base peak: 395.27992
Precursor m/z: 395.27992
Precursor type: [M+H]+
m/z	relative intensity
67.0534	35
100.9576	6
107.0867	141
108.0902	8
110.1047	19
125.0987	9
133.1019	154
134.1062	12
135.1179	145
147.1164	136
149.1335	117
151.1129	7
155.0854	46
157.1025	119
163.1118	18
169.1027	68
172.1215	16
177.1291	12
183.1179	63
187.1476	69
189.1451	27
191.1432	19
193.1219	13
197.1319	37
201.1277	35
205.1231	18
207.1388	10
211.1537	42
212.1526	12
213.1245	20
215.1418	18
219.137	62
225.1647	52
227.1792	30
235.1483	2
239.1804	15
243.1755	66
249.1689	8
257.1882	7
259.1715	9
263.1754	9
287.2398	18
293.1017	7
307.1258	11
313.2505	50
314.2581	7
315.2317	47
320.0925	10
322.0857	196
323.1626	93
324.2411	26
341.248	999
342.2509	189
345.2113	8
359.2584	125
360.2616	30
377.2677	16
397.223	48
