Mass spectrum: Methylthioadenosine; LC-ESI-QTOF; MS2; CE: -10, -35, -60V;  [M-H]-
Name: Methylthioadenosine
Class: NA
Formula: C11H15N5O3S
Exact mass: 297.0896
SMILES: CSCC1C(C(C(O1)N2C=NC3=C(N=CN=C32)N)O)O
InChI: InChI=1S/C11H15N5O3S/c1-20-2-5-7(17)8(18)11(19-5)16-4-15-6-9(12)13-3-14-10(6)16/h3-5,7-8,11,17-18H,2H2,1H3,(H2,12,13,14)
Instrument: TripleToF 5600; Sciex
Instrument type: LC-ESI-QTOF
Ms type: MS2
Ion mode: NEGATIVE
Ionization: ESI
Collision energy: -10, -35, -60V
Column name: Acquity CSHC18
Retention time: 6.154 min
Base peak: 296.0819
Precursor m/z: 296.0819
Precursor type: [M-H]-
Precursor intensity: 44948.94
m/z	relative intensity
134.046	999
135.0498	85
246.1726	58
296.0819	921
