Mass spectrum: 1-METHYL-L-HISTIDINE; LC-ESI-QFT; MS2; CE: 30eV;  [M+H]+
Name: 1-METHYL-L-HISTIDINE
Class: NA
Formula: C7H11N3O2
Exact mass: 169.08513
SMILES: CN1C=NC(C[C@H](N)C(O)=O)=C1
InChI: InChI=1S/C7H11N3O2/c1-10-3-5(9-4-10)2-6(8)7(11)12/h3-4,6H,2,8H2,1H3,(H,11,12)/t6-/m0/s1
Instrument: Q-Exactive Orbitrap, Thermo Scientfic; Ultimate 3000 HPLC, Thermo Scientfic
Instrument type: LC-ESI-QFT
Ms type: MS2
Ion mode: POSITIVE
Ionization: ESI
Collision energy: 30eV
Column name: Acquity CSHC18
Retention time: 0.549 min
Base peak: 170.0924
Precursor m/z: 170.0924
Precursor type: [M+H]+
Precursor intensity: 104
m/z	relative intensity
56.0502	14
62.9327	4
65.8535	4
68.0502	12
68.2839	5
81.0453	26
82.9686	6
83.061	126
88.1025	5
96.0687	85
97.0766	111
104.1434	5
109.0765	999
110.08	25
125.0713	71
125.0843	22
125.0906	142
126.1028	52
126.107	5
144.7993	7
152.0822	13
153.0662	26
171.0896	14
171.0959	64
183.3955	6
