Mass spectrum: Kaempferol 3,7,4'-trimethyl ether; LC-ESI-QTOF; MS2; CE: 50eV;  [M+H]+
Name: Kaempferol 3,7,4'-trimethyl ether
Class: Flavonol
Formula: C18H16O6
Exact mass: 328.0947
SMILES: COC1=CC=C(C=C1)C2=C(C(=O)C3=C(C=C(C=C3O2)OC)O)OC
InChI: InChI=1S/C18H16O6/c1-21-11-6-4-10(5-7-11)17-18(23-3)16(20)15-13(19)8-12(22-2)9-14(15)24-17/h4-9,19H,1-3H3
Instrument: TIMS-TOF Pro, Bruker Daltonik; Elute UHPLC System, Bruker Daltonik
Instrument type: LC-ESI-QTOF
Ms type: MS2
Ion mode: POSITIVE
Ionization: ESI
Collision energy: 50eV
Column name: Acquity CSHC18
Retention time: 11.196 min
Base peak: 329.0981
Precursor m/z: 329.0981
Precursor type: [M+H]+
Precursor intensity: 134994.7
m/z	relative intensity
53.0313	3
63.5495	5
80.0771	6
92.0237	4
104.037	3
116.063	8
133.8549	8
135.0434	62
136.0482	9
150.0329	13
155.0453	4
159.0775	4
183.0091	8
187.0384	4
193.0157	5
200.0419	3
215.0684	69
225.0305	3
228.0393	17
241.0622	5
243.0666	78
244.0645	9
251.6805	3
256.036	7
257.0347	10
270.0512	8
271.0612	68
272.06	13
284.0307	14
285.0745	24
286.0746	17
298.0451	20
299.0292	8
305.0458	7
313.0704	30
314.0537	32
314.0762	999
314.5797	4
315.078	144
316.0786	11
323.6721	3
328.8967	8
329.0118	9
329.0751	39
