Mass spectrum: Lyso SM (d18:1); ESI-TOF; MS2; CE: 6.0000000;  [M+H]+
Name: Lyso SM (d18:1)
Class: NA
Formula: C23H49N2O5P
Exact mass: 464.33791
SMILES: [H]OC([H])(C([H])=C([H])C([H])([H])C([H])([H])C([H])([H])C([H])([H])C([H])([H])C([H])([H])C([H])([H])C([H])([H])C([H])([H])C([H])([H])C([H])([H])C([H])([H])C([H])([H])[H])C([H])(N([H])[H])C([H])([H])OP(=O)([O-])OC([H])([H])C([H])([H])[N+](C([H])([H])[H])(C([H])([H])[H])C([H])([H])[H]
InChI: InChI=1S/C23H49N2O5P/c1-5-6-7-8-9-10-11-12-13-14-15-16-17-18-23(26)22(24)21-30-31(27,28)29-20-19-25(2,3)4/h17-18,22-23,26H,5-16,19-21,24H2,1-4H3
Instrument: waters xevo g2 TOF
Instrument type: ESI-TOF
Ms type: MS2
Ion mode: POSITIVE
Ionization: ESI
Collision energy: 6.0000000
Column name: Acquity CSHC18
Retention time: 4.263 min
Base peak: 465.34591
Precursor m/z: 465.34591
Precursor type: [M+H]+
m/z	relative intensity
104.1073	1
162.9464	1
184.0739	208
185.0768	25
186.0779	2
222.0198	1
224.1722	88
224.6731	22
238.6133	2
239.116	7
243.145	216
243.6463	66
244.1469	12
245.142	3
250.1224	8
251.1309	8
251.6328	4
252.1489	9
252.6518	3
264.2689	51
265.2724	20
266.2764	1
306.1794	1
318.1821	1
320.1975	2
335.2112	2
349.2262	7
351.1668	2
351.6695	13
352.1713	3
363.2407	3
364.2483	1
374.2465	3
377.2564	8
388.2596	2
391.272	3
405.2891	1
406.2709	2
430.3078	11
447.3348	35
448.3352	5
465.346	999
466.3486	264
