Mass spectrum: 5-trans Prostaglandin F2-beta; ESI-TOF; MS2; CE: 0.6458333;  [M+H]+
Name: 5-trans Prostaglandin F2-beta
Class: NA
Formula: C20H34O5
Exact mass: 354.24062
SMILES: O[C@H]1[C@H](C/C=C/CCCC(O)=O)[C@@H](/C=C/[C@@H](O)CCCCC)[C@H](O)C1
InChI: InChI=1S/C20H34O5/c1-2-3-6-9-15(21)12-13-17-16(18(22)14-19(17)23)10-7-4-5-8-11-20(24)25/h4,7,12-13,15-19,21-23H,2-3,5-6,8-11,14H2,1H3,(H,24,25)/b7-4+,13-12+/t15-,16+,17+,18+,19+/m0/s1
Instrument: waters xevo g2 TOF
Instrument type: ESI-TOF
Ms type: MS2
Ion mode: POSITIVE
Ionization: ESI
Collision energy: 0.6458333
Column name: Acquity CSHC18
Retention time: 3.507 min
Base peak: 355.24862
Precursor m/z: 355.24862
Precursor type: [M+H]+
m/z	relative intensity
79.0546	159
81.0698	231
91.0547	267
93.0701	149
105.0708	452
107.0864	169
109.0659	63
117.071	460
119.0869	307
121.1029	100
128.0616	36
129.0711	525
130.0745	64
131.0869	781
132.0908	77
133.1014	167
141.0703	140
142.0803	57
143.0865	443
144.089	28
145.101	413
147.0814	106
155.0855	153
157.1013	522
158.105	59
159.117	185
167.072	79
169.1022	238
170.1017	32
171.1185	358
173.1324	150
175.1492	102
181.0998	162
182.0544	124
183.117	141
185.0723	142
186.1345	31
187.1122	163
189.1612	26
193.1424	29
195.1023	109
199.131	96
201.1631	56
203.1068	43
209.1316	94
211.1472	27
213.1258	57
217.158	67
219.0456	33
227.1742	34
239.178	110
241.1948	206
255.1904	64
257.1899	119
259.203	35
265.1958	84
273.2212	40
275.1996	142
283.2062	308
284.2087	39
301.2161	999
302.2189	164
313.1462	55
314.1327	25
315.1856	57
318.127	91
319.2267	103
331.1581	659
332.1592	96
337.2347	19
346.1253	305
347.1291	610
349.1347	147
351.1275	51
357.1713	58
