Mass spectrum: Thyroxine; ESI-TOF; MS2; CE: 6.0000000;  [M+H]+
Name: Thyroxine
Class: NA
Formula: C15H11I4NO4
Exact mass: 776.68670
SMILES: NC(CC1=CC(I)=C(OC2=CC(I)=C(O)C(I)=C2)C(I)=C1)C(O)=O
InChI: InChI=1S/C15H11I4NO4/c16-8-4-7(5-9(17)13(8)21)24-14-10(18)1-6(2-11(14)19)3-12(20)15(22)23/h1-2,4-5,12,21H,3,20H2,(H,22,23)
Instrument: waters xevo g2 TOF
Instrument type: ESI-TOF
Ms type: MS2
Ion mode: POSITIVE
Ionization: ESI
Collision energy: 6.0000000
Column name: Acquity CSHC18
Retention time: 3.509 min
Base peak: 777.69470
Precursor m/z: 777.69470
Precursor type: [M+H]+
m/z	relative intensity
106.0737	4
119.0497	4
127.0389	3
131.9759	2
177.1641	1
195.1377	1
217.1072	2
235.1681	2
307.0886	1
388.0259	53
411.1678	10
425.1351	17
433.8745	8
460.2684	5
489.1057	1
593.8468	1
602.8485	1
731.6865	5
776.6853	4
777.6928	999
778.6969	155
