Mass spectrum: (-)-epicatechin gallate; LC-ESI-ITFT; MS2; CE: 0.3;  [M-H]-
Name: (-)-epicatechin gallate
Class: flavanols
Formula: C22H18O10
Exact mass: 442.0900
SMILES: C1C(C(OC2=CC(=CC(=C21)O)O)C3=CC(=C(C=C3)O)O)OC(=O)C4=CC(=C(C(=C4)O)O)O
InChI: InChI=1S/C22H18O10/c23-11-6-14(25)12-8-19(32-22(30)10-4-16(27)20(29)17(28)5-10)21(31-18(12)7-11)9-1-2-13(24)15(26)3-9/h1-7,19,21,23-29H,8H2
Instrument: LTQ-Orbitrap XL hybrid mass spectrometer (Thermo Scientific)
Instrument type: LC-ESI-ITFT
Ms type: MS2
Ion mode: NEGATIVE
Ionization: ESI
Collision energy: 0.3
Column name: Acquity CSHC18
Retention time: 7.105 min
Base peak: 441.0821
Precursor m/z: 441.0821
Precursor type: [M-H]-
Precursor intensity: 21381970
m/z	relative intensity
113.3791	1
115.0791	1
115.3185	1
118.672	1
125.0248	11
128.9993	1
132.2413	1
137.0248	11
146.426	1
162.6234	1
166.9987	2
167.7634	3
169.0145	94
176.5141	1
179.0357	2
189.8936	1
193.0143	57
193.2182	1
194.4741	1
194.4998	1
194.5165	2
194.5219	2
194.535	1
196.1393	4
197.0128	1
203.0714	1
205.0144	5
205.0505	4
205.3474	1
211.1357	1
211.5409	1
241.913	1
243.0662	2
245.0457	3
245.0818	20
246.085	2
253.0504	19
259.061	27
271.061	108
271.4701	1
272.0644	4
273.0764	2
275.0559	3
285.0401	4
286.2412	2
286.9449	4
287.0561	21
287.2134	2
287.2295	10
287.2403	6
287.246	3
287.2956	1
287.6511	5
287.9337	3
288.0592	2
288.3608	1
289.0299	3
289.0523	6
289.0714	999
289.0859	5
289.0951	6
289.1025	4
289.1132	3
289.1249	3
289.132	1
290.0746	67
290.2158	4
290.5026	6
290.8618	1
291.2219	5
291.944	4
293.3951	2
297.0396	5
297.7005	1
303.0504	62
304.0538	3
315.0505	19
323.7807	2
331.0454	163
332.0488	12
397.0921	40
398.096	4
423.0715	22
439.4469	1
