Mass spectrum: Ginsenoside Rd; LC-ESI-QFT; MS2; CE: 15,30,45 (NCE);  [M+NH4]+
Name: Ginsenoside Rd
Class: NA
Formula: C48H82O18
Exact mass: 946.5501
SMILES: CC(C)=CCCC(C)(OC1OC(CO)C(O)C(O)C1O)C1CCC2(C)C1C(O)CC1C3(C)CCC(OC4OC(CO)C(O)C(O)C4OC4OC(CO)C(O)C(O)C4O)C(C)(C)C3CCC21C
InChI: InChI=1S/C48H82O18/c1-22(2)10-9-14-48(8,66-42-39(60)36(57)33(54)26(20-50)62-42)23-11-16-47(7)31(23)24(52)18-29-45(5)15-13-30(44(3,4)28(45)12-17-46(29,47)6)64-43-40(37(58)34(55)27(21-51)63-43)65-41-38(59)35(56)32(53)25(19-49)61-41/h10,23-43,49-60H,9,11-21H2,1-8H3
Instrument: QE Focus, Thermo Scientfic; UPLC I-Class, Waters
Instrument type: LC-ESI-QFT
Ms type: MS2
Ion mode: POSITIVE
Ionization: ESI
Collision energy: 15,30,45 (NCE)
Column name: Acquity CSHC18
Retention time: 3.030 min
Base peak: 964.5867
Precursor m/z: 964.5867
Precursor type: [M+NH4]+
Precursor intensity: 3087376
m/z	relative intensity
67.055	39
69.0344	74
69.0708	44
81.0344	33
81.0709	199
83.0867	25
85.0293	875
91.0398	34
93.0705	92
95.0863	318
97.0293	204
97.1019	18
99.0445	29
99.081	34
105.0704	114
107.0863	173
109.0292	31
109.1019	483
119.0864	128
121.1017	199
123.1174	343
127.0396	400
127.1122	27
133.1019	150
135.1174	151
137.1328	83
145.0499	746
147.1174	400
149.1331	211
159.117	18
161.1332	175
163.0605	319
163.1482	74
173.1325	28
175.1484	82
177.1647	70
179.0555	17
187.1478	23
189.1641	270
191.1801	169
201.1644	31
203.1799	270
205.1956	72
207.175	132
215.1805	37
217.1954	245
221.19	25
229.196	24
257.2274	76
271.2439	36
289.0924	32
297.259	22
325.1136	653
325.1472	24
369.3177	33
382.2988	28
382.338	54
382.3794	23
407.3682	999
425.3788	754
443.3895	252
569.4225	36
587.4293	122
605.4398	124
669.2372	19
749.48	81
767.4927	43
805.0878	23
