Mass spectrum: L-Dihydroorotic acid; ESI-TOF; MS2; CE: 0.6458333;  [M+H]+
Name: L-Dihydroorotic acid
Class: NA
Formula: C5H6N2O4
Exact mass: 158.03276
SMILES: OC(=O)C1CC(=O)NC(=O)N1
InChI: InChI=1S/C5H6N2O4/c8-3-1-2(4(9)10)6-5(11)7-3/h2H,1H2,(H,9,10)(H2,6,7,8,11)
Instrument: waters xevo g2 TOF
Instrument type: ESI-TOF
Ms type: MS2
Ion mode: POSITIVE
Ionization: ESI
Collision energy: 0.6458333
Column name: Acquity CSHC18
Retention time: 0.628 min
Base peak: 159.04076
Precursor m/z: 159.04076
Precursor type: [M+H]+
m/z	relative intensity
87.0566	5
88.0409	106
95.9744	83
98.9624	5
99.0091	179
113.0356	438
116.0351	5
123.1168	29
124.9567	5
131.0463	5
139.9641	142
141.0298	5
141.9594	41
145.0179	129
159.0408	281
160.0437	5
160.9887	105
162.9911	31
167.9626	645
170.9894	5
172.9779	5
178.1236	5
191.0235	5
196.9872	999
205.9888	5
208.989	279
209.9901	95
213.9468	5
214.9997	5
217.8591	76
230.8916	5
238.014	5
240.029	50
242.992	5
242.9957	5
243.979	5
246.8627	50
253.9862	5
254.9931	434
257.9597	5
258.9655	5
274.025	5
289.9829	5
297.0061	5
299.9932	5
303.0506	5
319.0222	5
325.9966	109
326.9978	5
355.0202	151
370.9919	5
371.9959	5
372.9919	5
484.0277	5
499.0571	5
513.0526	5
528.0181	5
529.023	5
