Mass spectrum: Gluconasturtiin; LC-ESI-QTOF; MS2; CE: 24.15;  [M-H]-
Name: Gluconasturtiin
Class: NA
Formula: C15H21NO9S2
Exact mass: 423.0658
SMILES: C1=CC=C(C=C1)CCC(=NOS(=O)(=O)O)SC2C(C(C(C(O2)CO)O)O)O
InChI: InChI=1S/C15H21NO9S2/c17-8-10-12(18)13(19)14(20)15(24-10)26-11(16-25-27(21,22)23)7-6-9-4-2-1-3-5-9/h1-5,10,12-15,17-20H,6-8H2,(H,21,22,23)
Instrument: Bruker MicrOTOF-Q
Instrument type: LC-ESI-QTOF
Ms type: MS2
Ion mode: NEGATIVE
Ionization: ESI
Collision energy: 24.15
Column name: Acquity CSHC18
Retention time: NA
Base peak: 422.0585
Precursor m/z: 422.0585
Precursor type: [M-H]-
m/z	relative intensity
50.48	2
79.9526	11
80.7798	2
91.9996	2
95.4535	2
95.9521	580
96.094	2
96.2757	1
96.6108	1
96.7171	3
96.9595	999
97.3098	2
97.952	33
98.9565	51
111.9304	2
112.9372	2
127.9222	9
128.9248	4
129.9185	3
138.9703	22
165.0342	1
180.0503	18
181.0537	6
199.0022	13
226.0195	6
228.9993	52
241.0009	12
244.0301	4
256.9866	3
259.0119	79
260.0198	3
261.0111	3
274.9901	38
275.9905	2
301.0119	2
422.0536	11
423.0474	2
