Mass spectrum: Quercetin-3-O-sophoroside; LC-ESI-QTOF; MS2; CE: 50eV;  [M+Na]+
Name: Quercetin-3-O-sophoroside
Class: Flavonol
Formula: C27H30O17
Exact mass: 626.1483
SMILES: C1=CC(=C(C=C1C2=C(C(=O)C3=C(C=C(C=C3O2)O)O)OC4C(C(C(C(O4)CO)O)O)OC5C(C(C(C(O5)CO)O)O)O)O)O
InChI: InChI=1S/C27H30O17/c28-6-14-17(34)20(37)22(39)26(41-14)44-25-21(38)18(35)15(7-29)42-27(25)43-24-19(36)16-12(33)4-9(30)5-13(16)40-23(24)8-1-2-10(31)11(32)3-8/h1-5,14-15,17-18,20-22,25-35,37-39H,6-7H2
Instrument: TIMS-TOF Pro, Bruker Daltonik; Elute UHPLC System, Bruker Daltonik
Instrument type: LC-ESI-QTOF
Ms type: MS2
Ion mode: POSITIVE
Ionization: ESI
Collision energy: 50eV
Column name: Acquity CSHC18
Retention time: 4.616 min
Base peak: 649.1282
Precursor m/z: 649.1282
Precursor type: [M+Na]+
Precursor intensity: 4178.12
m/z	relative intensity
185.0367	207
347.0918	873
518.016	404
649.1282	999
