Mass spectrum: Dimethyl salicylate; LC-ESI-QTOF; MS2; CE: 15.00;  [M+H]+
Name: Dimethyl salicylate
Class: NA
Formula: C9H10O3
Exact mass: 166.0630
SMILES: COC1=CC=CC=C1C(=O)OC
InChI: InChI=1S/C9H10O3/c1-11-8-6-4-3-5-7(8)9(10)12-2/h3-6H,1-2H3
Instrument: Bruker MicrOTOF-Q
Instrument type: LC-ESI-QTOF
Ms type: MS2
Ion mode: POSITIVE
Ionization: ESI
Collision energy: 15.00
Column name: Acquity CSHC18
Retention time: NA
Base peak: 167.0703
Precursor m/z: 167.0703
Precursor type: [M+H]+
m/z	relative intensity
120.0183	9
133.0262	1
135.0428	999
135.2502	1
136.046	95
137.0465	2
