Mass spectrum: H-Ile-Phe; LC-ESI-QTOF; MS2; CE: 31.11;  [2M-H]-
Name: H-Ile-Phe
Class: NA
Formula: C15H22N2O3
Exact mass: 278.1630
SMILES: CCC(C)C(C(=O)NC(CC1=CC=CC=C1)C(=O)O)N
InChI: InChI=1S/C15H22N2O3/c1-3-10(2)13(16)14(18)17-12(15(19)20)9-11-7-5-4-6-8-11/h4-8,10,12-13H,3,9,16H2,1-2H3,(H,17,18)(H,19,20)
Instrument: Bruker MicrOTOF-Q
Instrument type: LC-ESI-QTOF
Ms type: MS2
Ion mode: NEGATIVE
Ionization: ESI
Collision energy: 31.11
Column name: Acquity CSHC18
Retention time: NA
Base peak: 555.3188
Precursor m/z: 555.3188
Precursor type: [2M-H]-
m/z	relative intensity
129.1	145
130.11	11
131.11	1
139.09	1
141.1	1
146.9	1
147.04	42
148.05	5
149.05	1
155.12	1
157.09	1
163.96	1
164.07	44
165.07	4
166.08	1
216.14	1
231.15	3
232.16	1
232.27	1
233.17	108
234.17	18
235.17	2
259.14	2
260.15	1
275.72	2
275.93	1
276.09	6
276.45	3
276.57	1
277.16	999
277.4	2
277.57	3
277.97	2
278.16	185
278.45	1
278.83	1
279.16	22
280.16	2
