Mass spectrum: L-Threonine; ESI-TOF; MS2; CE: 0.6458333;  [M+H]+
Name: L-Threonine
Class: NA
Formula: C4H9NO3
Exact mass: 119.05824
SMILES: CC(O)C(N)C(O)=O
InChI: InChI=1S/C4H9NO3/c1-2(6)3(5)4(7)8/h2-3,6H,5H2,1H3,(H,7,8)
Instrument: waters xevo g2 TOF
Instrument type: ESI-TOF
Ms type: MS2
Ion mode: POSITIVE
Ionization: ESI
Collision energy: 0.6458333
Column name: Acquity CSHC18
Retention time: 0.521 min
Base peak: 120.06624
Precursor m/z: 120.06624
Precursor type: [M+H]+
m/z	relative intensity
74.0608	5
74.954	120
82.9451	73
95.9744	87
97.969	999
98.9621	5
99.9698	5
102.0736	114
102.1279	5
106.992	5
113.9761	186
114.971	5
114.9714	5
120.0662	68
121.0694	5
122.0711	5
128.9859	5
128.9866	5
130.9676	53
131.9507	5
131.9511	5
131.9514	27
139.9646	5
142.0478	87
143.9593	5
145.9547	5
175.964	5
178.995	5
182.985	5
189.0173	5
194.1168	5
203.9843	5
204.9916	5
217.8594	122
246.8633	5
248.0068	22
287.8894	5
