Mass spectrum: citric acid; LC-ESI-QTOF; MS2; CE: 15;  [M-H]-
Name: citric acid
Class: NA
Formula: C6H8O7
Exact mass: 192.0270
SMILES: C(C(=O)O)C(CC(=O)O)(C(=O)O)O
InChI: InChI=1S/C6H8O7/c7-3(8)1-6(13,5(11)12)2-4(9)10/h13H,1-2H2,(H,7,8)(H,9,10)(H,11,12)
Instrument: Bruker MicrOTOF-Q
Instrument type: LC-ESI-QTOF
Ms type: MS2
Ion mode: NEGATIVE
Ionization: ESI
Collision energy: 15
Column name: Acquity CSHC18
Retention time: NA
Base peak: 191.0197
Precursor m/z: 191.0197
Precursor type: [M-H]-
m/z	relative intensity
45.4861	42
46.4555	33
48.2085	22
49.0662	28
49.9915	30
50.6939	30
52.0763	39
53.1693	23
53.9231	31
54.7594	30
55.5494	26
56.3807	31
58.7898	30
59.675	26
60.5105	42
61.4237	30
62.0774	40
62.6005	29
63.3359	34
63.941	37
64.3806	32
65.7221	32
66.6505	31
67.5045	30
68.0782	27
69.3924	29
70.2387	26
72.3948	29
73.1386	25
73.9158	20
74.7864	26
75.8254	32
76.6938	31
77.371	25
78.1317	37
78.8905	32
79.7712	46
80.5584	33
80.9894	33
81.8454	34
82.8727	31
84.4165	27
85.0535	36
86.9234	117
88.1282	31
89.2825	26
91.2382	26
91.8363	26
93.9744	26
95.0405	30
96.8039	31
97.611	35
98.5433	31
99.3768	30
100.661	24
101.413	29
101.8614	26
102.5646	35
104.3055	20
105.1051	21
107.7465	27
108.5503	23
109.1224	53
111.0063	999
112.2104	152
117.4135	29
119.8675	28
125.4126	21
127.4604	18
128.8416	132
129.801	20
134.603	29
139.5218	44
143.011	30
146.9839	26
147.7768	22
154.2434	44
154.9776	23
156.4183	38
171.4722	21
172.84	44
184.7036	17
191.016	34
203.5931	17
212.7191	35
221.4926	28
322.1563	21
342.0213	22
345.9987	24
349.7705	21
352.9392	22
383.9688	19
413.2087	18
426.5066	18
458.5022	35
685.8384	33
784.6276	19
849.8538	20
929.6677	26
961.3324	21
990.8776	30
