Mass spectrum: Resveratrol; LC-ESI-QTOF; MS2; CE: 50eV;  [M+H]+
Name: Resveratrol
Class: Stilbene
Formula: C14H12O3
Exact mass: 228.0786
SMILES: C1=CC(=CC=C1C=CC2=CC(=CC(=C2)O)O)O
InChI: InChI=1S/C14H12O3/c15-12-5-3-10(4-6-12)1-2-11-7-13(16)9-14(17)8-11/h1-9,15-17H
Instrument: TIMS-TOF Pro, Bruker Daltonik; Elute UHPLC System, Bruker Daltonik
Instrument type: LC-ESI-QTOF
Ms type: MS2
Ion mode: POSITIVE
Ionization: ESI
Collision energy: 50eV
Column name: Acquity CSHC18
Retention time: 6.278 min
Base peak: 229.0853
Precursor m/z: 229.0853
Precursor type: [M+H]+
Precursor intensity: 40669.38
m/z	relative intensity
33.2981	87
41.6987	50
51.0228	52
62.6734	76
77.0272	65
79.0524	59
91.0371	43
91.0537	310
107.0492	735
109.0282	56
111.042	70
119.0494	272
121.0293	138
123.0449	84
132.1187	65
135.0435	999
136.0521	116
140.0451	38
140.0582	48
145.063	133
151.0552	41
153.0704	99
157.0592	90
160.0519	56
163.0527	22
164.0611	107
165.0707	252
180.0549	38
181.0654	75
183.0779	145
193.0642	131
198.0653	44
200.0822	113
201.0912	40
209.0614	47
211.0758	230
213.0559	70
228.0754	416
229.0829	620
