Mass spectrum: GDP-glucose; LC-ESI-QTOF; MS2; CE: 100;  [M-H]-
Name: GDP-glucose
Class: Purine nucleotide sugars
Formula: C16H25N5O16P2
Exact mass: 605.07715
SMILES: NC1=NC2=C(N=CN2[C@@H]2O[C@H](COP(O)(=O)OP(O)(=O)O[C@H]3O[C@H](CO)[C@@H](O)[C@H](O)[C@H]3O)[C@@H](O)[C@H]2O)C(=O)N1
InChI: InChI=1S/C16H25N5O16P2/c17-16-19-12-6(13(28)20-16)18-3-21(12)14-10(26)8(24)5(34-14)2-33-38(29,30)37-39(31,32)36-15-11(27)9(25)7(23)4(1-22)35-15/h3-5,7-11,14-15,22-27H,1-2H2,(H,29,30)(H,31,32)(H3,17,19,20,28)/t4-,5-,7-,8-,9+,10-,11-,14-,15-/m1/s1
Instrument: impact II
Instrument type: LC-ESI-QTOF
Ms type: MS2
Ion mode: NEGATIVE
Ionization: ESI
Collision energy: 100
Column name: Acquity CSHC18
Retention time: 1.747 min
Base peak: 604.06940
Precursor m/z: 604.06940
Precursor type: [M-H]-
m/z	relative intensity
62.9644	19
78.9591	999
78.9693	37
78.9993	3
79.0154	2
79.0219	2
79.0306	4
79.0395	2
79.0441	2
79.0751	2
79.0794	2
79.2566	2
79.4252	2
79.9625	2
80.963	3
96.9697	78
96.9818	2
105.0195	2
106.0284	2
107.0361	9
108.0205	14
109.0239	2
120.9697	42
126.0306	6
132.0313	2
133.0156	87
133.031	2
134.0183	6
136.9657	3
138.9811	1
150.0423	32
151.026	1
151.0441	2
158.9255	56
162.9816	1
174.9812	2
192.9913	1
