Mass spectrum: PYRIDOXAL-PHOSPHATE; LC-ESI-QFT; MS2; CE: 30eV;  [M-H]-
Name: PYRIDOXAL-PHOSPHATE
Class: NA
Formula: C8H10NO6P
Exact mass: 247.02457
SMILES: CC1=NC=C(COP(O)(O)=O)C(C=O)=C1O
InChI: InChI=1S/C8H10NO6P/c1-5-8(11)7(3-10)6(2-9-5)4-15-16(12,13)14/h2-3,11H,4H2,1H3,(H2,12,13,14)
Instrument: Q-Exactive Orbitrap, Thermo Scientfic; Ultimate 3000 HPLC, Thermo Scientfic
Instrument type: LC-ESI-QFT
Ms type: MS2
Ion mode: NEGATIVE
Ionization: ESI
Collision energy: 30eV
Column name: Acquity CSHC18
Retention time: 0.793 min
Base peak: 246.0173
Precursor m/z: 246.0173
Precursor type: [M-H]-
Precursor intensity: 122
m/z	relative intensity
50.7742	8
51.9426	9
52.9702	8
56.5614	8
61.9867	18
64.6539	12
66.7366	12
78.9272	10
78.9573	457
88.3254	10
96.9679	999
99.9241	13
107.4599	10
114.4951	12
117.7876	9
128.0705	10
156.8675	13
157.8756	13
162.5703	11
174.8782	12
175.8863	14
195.4221	10
201.3394	12
221.5206	11
230.7404	9
265.9265	13
