Mass spectrum: flavin mononucleotide; LC-ESI-QTOF; MS2; CE: -10, -35, -60V;  [M-H]-
Name: flavin mononucleotide
Class: NA
Formula: C17H21N4O9P
Exact mass: 456.1046
SMILES: CC1=CC2=C(C=C1C)N(C3=NC(=O)NC(=O)C3=N2)CC(C(C(COP(=O)(O)O)O)O)O
InChI: InChI=1S/C17H21N4O9P/c1-7-3-9-10(4-8(7)2)21(15-13(18-9)16(25)20-17(26)19-15)5-11(22)14(24)12(23)6-30-31(27,28)29/h3-4,11-12,14,22-24H,5-6H2,1-2H3,(H,20,25,26)(H2,27,28,29)
Instrument: TripleToF 5600; Sciex
Instrument type: LC-ESI-QTOF
Ms type: MS2
Ion mode: NEGATIVE
Ionization: ESI
Collision energy: -10, -35, -60V
Column name: Acquity CSHC18
Retention time: 12.364 min
Base peak: 455.0978
Precursor m/z: 455.0978
Precursor type: [M-H]-
Precursor intensity: 135290.3
m/z	relative intensity
78.96	202
91.0525	13
96.97	219
163.0325	35
163.0451	35
169.0806	3
199.0013	57
212.0836	49
213.018	70
228.1828	4
241.0709	52
242.0845	8
255.088	58
256.0922	9
284.2246	16
453.0926	17
455.099	999
