Mass spectrum: 15(S)-Fluprostenol isopropyl ester; ESI-TOF; MS2; CE: 0.6458333;  [M+H]+
Name: 15(S)-Fluprostenol isopropyl ester
Class: NA
Formula: C26H35F3O6
Exact mass: 500.23857
SMILES: O[C@@H]1[C@H](C/C=C\CCCC(OC(C)C)=O)[C@@H](/C=C/[C@H](O)COC2=CC=CC(C(F)(F)F)=C2)[C@H](O)C1
InChI: InChI=1S/C26H35F3O6/c1-17(2)35-25(33)11-6-4-3-5-10-21-22(24(32)15-23(21)31)13-12-19(30)16-34-20-9-7-8-18(14-20)26(27,28)29/h3,5,7-9,12-14,17,19,21-24,30-32H,4,6,10-11,15-16H2,1-2H3/b5-3-,13-12+/t19-,21+,22+,23-,24+/m0/s1
Instrument: waters xevo g2 TOF
Instrument type: ESI-TOF
Ms type: MS2
Ion mode: POSITIVE
Ionization: ESI
Collision energy: 0.6458333
Column name: Acquity CSHC18
Retention time: 4.437 min
Base peak: 501.24657
Precursor m/z: 501.24657
Precursor type: [M+H]+
m/z	relative intensity
71.0496	34
79.038	248
81.0705	194
91.0549	722
93.0712	350
105.0711	971
106.0751	58
107.0866	230
109.0653	63
115.0562	136
117.0709	620
119.0862	750
121.0297	250
127.0548	42
128.0629	269
129.0706	754
130.0758	103
131.0868	478
133.1015	304
135.0804	61
141.071	383
142.0784	162
143.0562	278
144.0915	69
145.1019	515
147.1178	777
148.1217	81
154.0773	99
155.0866	753
156.0927	158
157.102	259
159.08	168
161.1329	152
165.0708	129
166.0782	229
167.0859	97
168.0938	132
169.1016	419
170.1077	57
171.1176	310
181.1014	546
183.1173	784
187.0374	25
189.1281	597
190.131	51
192.0952	82
197.1334	348
199.1114	174
201.1274	102
205.1194	46
207.1365	699
208.1312	41
215.1435	116
219.138	31
225.1282	658
227.0591	45
233.1559	28
243.1379	818
244.1408	68
249.1849	415
250.1877	69
259.1697	37
261.1494	170
267.0678	146
273.0808	103
281.0849	384
285.1848	379
299.0968	142
303.1935	185
315.0641	94
321.1593	295
322.1161	114
375.1265	44
376.1279	40
419.1165	147
437.1278	203
439.118	29
461.1151	55
464.1303	95
465.1729	101
477.1524	69
479.1335	203
481.1813	570
482.1359	337
483.1421	108
497.1475	999
