Mass spectrum: PYRROLE-2-CARBOXYLATE; LC-ESI-QFT; MS2; CE: 30eV;  [M+H]+
Name: PYRROLE-2-CARBOXYLATE
Class: NA
Formula: C5H5NO2
Exact mass: 111.03203
SMILES: OC(=O)C1=CC=CN1
InChI: InChI=1S/C5H5NO2/c7-5(8)4-2-1-3-6-4/h1-3,6H,(H,7,8)
Instrument: Q-Exactive Orbitrap, Thermo Scientfic; Ultimate 3000 HPLC, Thermo Scientfic
Instrument type: LC-ESI-QFT
Ms type: MS2
Ion mode: POSITIVE
Ionization: ESI
Collision energy: 30eV
Column name: Acquity CSHC18
Retention time: 2.280 min
Base peak: 112.0393
Precursor m/z: 112.0393
Precursor type: [M+H]+
Precursor intensity: 199
m/z	relative intensity
50.617	4
51.6131	4
51.98	4
55.0549	8
56.0502	13
64.5105	5
66.6585	5
67.0548	11
68.0501	999
69.0535	7
69.0705	23
70.0657	5
70.9424	50
71.9298	24
74.4519	5
88.9529	42
94.0292	558
95.0327	7
95.2469	6
102.3406	5
112.0357	11
112.0396	288
112.0759	12
112.1124	7
113.9205	6
116.7016	5
130.8002	5
