Mass spectrum: 3,4-DIHYDROXYBENZOATE; LC-ESI-QTOF; MS2; CE: 10;  [M-H]-
Name: 3,4-DIHYDROXYBENZOATE
Class: NA
Formula: C7H6O4
Exact mass: 154.02661
SMILES: OC(=O)C1=CC(O)=C(O)C=C1
InChI: InChI=1S/C7H6O4/c8-5-2-1-4(7(10)11)3-6(5)9/h1-3,8-9H,(H,10,11)
Instrument: Agilent 6530Â Q-TOF LC/MS
Instrument type: LC-ESI-QTOF
Ms type: MS2
Ion mode: NEGATIVE
Ionization: ESI
Collision energy: 10
Column name: NA
Retention time: 0.200 min
Base peak: 153.01575
Precursor m/z: 153.01575
Precursor type: [M-H]-
Precursor intensity: 111
m/z	relative intensity
53.039	126
91.0174	146
108.0325	338
109.0571	438
153.0303	999
