Mass spectrum: Prostaglandin J2; ESI-TOF; MS2; CE: 6.0000000;  [M+H]+
Name: Prostaglandin J2
Class: NA
Formula: C20H30O4
Exact mass: 334.21441
SMILES: CCCCC[C@@H](/C=C/[C@@H]1[C@H](C=CC1=O)C/C=C\CCCC(=O)O)O
InChI: InChI=1S/C20H30O4/c1-2-3-6-10-17(21)13-14-18-16(12-15-19(18)22)9-7-4-5-8-11-20(23)24/h4,7,12-18,21H,2-3,5-6,8-11H2,1H3,(H,23,24)/b7-4-,14-13+/t16-,17-,18+/m0/s1
Instrument: waters xevo g2 TOF
Instrument type: ESI-TOF
Ms type: MS2
Ion mode: POSITIVE
Ionization: ESI
Collision energy: 6.0000000
Column name: Acquity CSHC18
Retention time: 3.885 min
Base peak: 335.22241
Precursor m/z: 335.22241
Precursor type: [M+H]+
m/z	relative intensity
129.0706	2
133.0649	4
135.0817	1
145.0828	1
147.0813	4
156.0873	8
169.0994	2
171.1166	4
173.0965	2
178.0835	80
178.5836	8
185.0525	4
189.1275	18
190.131	2
197.131	4
199.1111	10
201.1258	3
205.1211	1
211.1111	2
215.1429	27
216.1471	2
217.1227	20
218.1258	3
229.1242	2
233.153	27
235.1343	22
236.1377	2
239.1759	4
247.0653	12
253.1934	9
257.1875	3
262.03	4
263.1773	4
271.203	22
272.2098	3
281.1903	29
282.1909	10
288.0448	8
289.053	6
291.0497	2
299.1131	111
300.2026	65
301.2079	6
313.108	2
317.2106	999
318.2137	234
319.2153	26
332.333	1
335.22	10
336.1813	6
