Mass spectrum: Adenosine; LC-ESI-ITFT; MS2; CE: 10;  [M+H]+
Name: Adenosine
Class: Nucleosides, nucleotides, and analogues; Purine nucleosides
Formula: C10H13N5O4
Exact mass: 267.09675
SMILES: NC1=C2N=CN([C@@H]3O[C@H](CO)[C@@H](O)[C@H]3O)C2=NC=N1
InChI: InChI=1S/C10H13N5O4/c11-8-5-9(13-2-12-8)15(3-14-5)10-7(18)6(17)4(1-16)19-10/h2-4,6-7,10,16-18H,1H2,(H2,11,12,13)/t4-,6-,7-,10-/m1/s1
Instrument: Thermo Scientific Q-Exactive Focus
Instrument type: LC-ESI-ITFT
Ms type: MS2
Ion mode: POSITIVE
Ionization: ESI
Collision energy: 10
Column name: Acquity CSHC18
Retention time: 0.352 min
Base peak: 268.10403
Precursor m/z: 268.10403
Precursor type: [M+H]+
m/z	relative intensity
133.0496	1
136.0619	999
215.5495	1
220.9808	1
221.9813	3
227.1753	10
244.9979	1
268.1039	354
