Mass spectrum: Ferulic acid; LC-ESI-QTOF; MS2; CE: 50eV;  [M-H]-
Name: Ferulic acid
Class: Phenylpropanoid
Formula: C10H10O4
Exact mass: 194.0579
SMILES: COC1=C(C=CC(=C1)C=CC(=O)O)O
InChI: InChI=1S/C10H10O4/c1-14-9-6-7(2-4-8(9)11)3-5-10(12)13/h2-6,11H,1H3,(H,12,13)
Instrument: TIMS-TOF Pro, Bruker Daltonik; Elute UHPLC System, Bruker Daltonik
Instrument type: LC-ESI-QTOF
Ms type: MS2
Ion mode: NEGATIVE
Ionization: ESI
Collision energy: 50eV
Column name: Acquity CSHC18
Retention time: 5.338 min
Base peak: 193.0491
Precursor m/z: 193.0491
Precursor type: [M-H]-
Precursor intensity: 1375.62
m/z	relative intensity
134.0348	999
135.0407	109
178.0246	293
179.0296	120
