Mass spectrum: N-Butyryl-L-homoserine lactone; LC-ESI-ITFT; MS2; CE: 100;  [M+H]+
Name: N-Butyryl-L-homoserine lactone
Class: NA
Formula: C8H13NO3
Exact mass: 171.08954
SMILES: CCCC(=O)N[C@H]1CCOC1=O
InChI: InChI=1S/C8H13NO3/c1-2-3-7(10)9-6-4-5-12-8(6)11/h6H,2-5H2,1H3,(H,9,10)/t6-/m0/s1
Instrument: Thermo Scientific Q-Exactive Focus
Instrument type: LC-ESI-ITFT
Ms type: MS2
Ion mode: POSITIVE
Ionization: ESI
Collision energy: 100
Column name: Acquity CSHC18
Retention time: 2.574 min
Base peak: 172.09682
Precursor m/z: 172.09682
Precursor type: [M+H]+
m/z	relative intensity
53.0027	999
55.0272	218
64.4868	232
71.7589	220
75.2413	244
92.1891	209
96.1133	221
104.1402	224
136.4581	216
165.117	217
