Mass spectrum: theophylline; LC-ESI-QTOF; MS2; CE: -10, -35, -60V;  [M-H]-
Name: theophylline
Class: NA
Formula: C7H8N4O2
Exact mass: 180.0647
SMILES: CN1C2=C(C(=O)N(C1=O)C)NC=N2
InChI: InChI=1S/C7H8N4O2/c1-10-5-4(8-3-9-5)6(12)11(2)7(10)13/h3H,1-2H3,(H,8,9)
Instrument: TripleToF 5600; Sciex
Instrument type: LC-ESI-QTOF
Ms type: MS2
Ion mode: NEGATIVE
Ionization: ESI
Collision energy: -10, -35, -60V
Column name: Acquity CSHC18
Retention time: 3.962 min
Base peak: 179.0570
Precursor m/z: 179.0570
Precursor type: [M-H]-
Precursor intensity: 702779.6
m/z	relative intensity
65.994	198
65.9986	199
67.0012	15
67.0301	39
79.0165	182
92.0262	24
94.0413	126
107.0132	86
109.0261	11
120.0205	13
122.0346	249
135.0108	187
135.0255	207
135.0321	191
136.0395	34
164.034	874
165.039	156
178.4957	32
179.0581	999
