Mass spectrum: N-Acetylglutamic acid; ESI-TOF; MS2; CE: 6.0000000;  [M+H]+
Name: N-Acetylglutamic acid
Class: NA
Formula: C7H11NO5
Exact mass: 189.06372
SMILES: CC(=O)NC(CCC(O)=O)C(O)=O
InChI: InChI=1S/C7H11NO5/c1-4(9)8-5(7(12)13)2-3-6(10)11/h5H,2-3H2,1H3,(H,8,9)(H,10,11)(H,12,13)
Instrument: waters xevo g2 TOF
Instrument type: ESI-TOF
Ms type: MS2
Ion mode: POSITIVE
Ionization: ESI
Collision energy: 6.0000000
Column name: Acquity CSHC18
Retention time: 0.794 min
Base peak: 190.07172
Precursor m/z: 190.07172
Precursor type: [M+H]+
m/z	relative intensity
84.0453	213
114.9716	42
129.053	16
130.0506	515
142.9645	42
144.0663	15
149.0641	12
167.9976	11
172.0612	134
184.0294	11
186.0076	55
187.0117	3
190.0717	175
191.0236	13
197.9855	1
198.9927	48
198.9937	68
200.0007	55
212.0537	999
213.0569	112
227.0343	14
256.9988	32
270.9779	75
271.9734	3
303.0042	10
320.9612	8
401.1112	7
412.0452	4
414.0353	63
415.0409	19
417.0794	102
428.0493	6
432.0458	39
