Mass spectrum: C18 Lyso PAF; ESI-TOF; MS2; CE: 0.6458333;  [M+H]+
Name: C18 Lyso PAF
Class: NA
Formula: C26H56NO6P
Exact mass: 509.38453
SMILES: [H]OC([H])(C([H])([H])OC([H])([H])C([H])([H])C([H])([H])C([H])([H])C([H])([H])C([H])([H])C([H])([H])C([H])([H])C([H])([H])C([H])([H])C([H])([H])C([H])([H])C([H])([H])C([H])([H])C([H])([H])C([H])([H])C([H])([H])C([H])([H])[H])C([H])([H])OP(=O)([O-])OC([H])([H])C([H])([H])[N+](C([H])([H])[H])(C([H])([H])[H])C([H])([H])[H]
InChI: InChI=1S/C26H56NO6P/c1-5-6-7-8-9-10-11-12-13-14-15-16-17-18-19-20-22-31-24-26(28)25-33-34(29,30)32-23-21-27(2,3)4/h26,28H,5-25H2,1-4H3
Instrument: waters xevo g2 TOF
Instrument type: ESI-TOF
Ms type: MS2
Ion mode: POSITIVE
Ionization: ESI
Collision energy: 0.6458333
Column name: Acquity CSHC18
Retention time: 8.388 min
Base peak: 510.39253
Precursor m/z: 510.39253
Precursor type: [M+H]+
m/z	relative intensity
85.1022	4
86.0971	46
104.1077	999
105.1105	61
111.5144	4
112.9916	11
120.5192	22
125.0001	21
129.5253	35
136.932	9
138.5303	8
148.5331	29
157.538	7
162.9468	26
166.0625	5
184.0738	119
185.0775	6
192.9582	27
208.0056	4
222.0205	4
236.9849	4
246.6618	8
274.673	54
275.1761	9
275.6756	2
314.0308	1
336.6702	4
445.2392	23
446.2395	4
473.3012	103
474.3042	28
489.2643	7
492.3814	26
493.3852	7
496.7884	10
497.2928	4
499.8291	15
500.3297	8
510.393	402
511.396	125
