Mass spectrum: CITRULLINE; LC-ESI-QTOF; MS2; CE: 10;  [M+H]+
Name: CITRULLINE
Class: NA
Formula: C6H13N3O3
Exact mass: 175.0957
SMILES: N[C@@H](CCCNC(N)=O)C(O)=O
InChI: InChI=1S/C6H13N3O3/c7-4(5(10)11)2-1-3-9-6(8)12/h4H,1-3,7H2,(H,10,11)(H3,8,9,12)/t4-/m0/s1
Instrument: Agilent 6530Â Q-TOF LC/MS
Instrument type: LC-ESI-QTOF
Ms type: MS2
Ion mode: POSITIVE
Ionization: ESI
Collision energy: 10
Column name: NA
Retention time: 0.200 min
Base peak: 176.10254
Precursor m/z: 176.10254
Precursor type: [M+H]+
Precursor intensity: 97.5
m/z	relative intensity
43.0526	227
43.2692	33
45.6616	94
45.6967	12
46.7727	26
48.0401	38
48.6378	12
50.2399	41
50.7548	80
55.494	16
58.0185	16
58.6184	4
58.9447	36
58.9721	14
61.358	50
68.4331	19
69.3886	36
70.0638	999
70.1211	58
70.3076	14
70.3325	12
70.7191	63
71.2973	58
71.3445	7
75.0536	4
77.9368	26
78.1436	12
85.2671	4
85.531	48
87.5205	7
96.0375	121
102.8227	14
104.0689	172
113.0024	29
113.07	698
114.0567	303
114.1315	16
114.3781	58
115.4881	33
116.6718	16
118.6913	7
131.2583	4
136.9948	75
141.4594	31
143.9199	19
159.0707	215
160.4477	14
160.4924	48
160.9792	36
162.8892	113
174.3682	16
176.0996	133
176.4802	19
176.5106	9
176.8718	138
