Mass spectrum: Esculin; LC-ESI-ITFT; MS2; CE: 45eV;  [M+H]+
Name: Esculin
Class: coumarin
Formula: C15H16O9
Exact mass: 340.0794
SMILES: C1=CC(=O)OC2=CC(=C(C=C21)OC3C(C(C(C(O3)CO)O)O)O)O
InChI: InChI=1S/C15H16O9/c16-5-10-12(19)13(20)14(21)15(24-10)23-9-3-6-1-2-11(18)22-8(6)4-7(9)17/h1-4,10,12-17,19-21H,5H2
Instrument: LTQ Orbitrap XL, Thermo Scientfic; Dionex Ultimate 300
Instrument type: LC-ESI-ITFT
Ms type: MS2
Ion mode: POSITIVE
Ionization: ESI
Collision energy: 45eV
Column name: Alltima C18
Retention time: 7.21 min
Base peak: 341.0852
Precursor m/z: 341.0852
Precursor type: [M+H]+
m/z	relative intensity
122.99	999
144.9247	131
