Mass spectrum: Neoglucobrassicin; LC-ESI-QTOF; MS2; CE: 35.00;  [M-O3S+H]+
Name: Neoglucobrassicin
Class: NA
Formula: C17H22N2O10S2
Exact mass: 478.0716
SMILES: CON1C=C(C2=CC=CC=C21)CC(=NOS(=O)(=O)O)SC3C(C(C(C(O3)CO)O)O)O
InChI: InChI=1S/C17H22N2O10S2/c1-27-19-7-9(10-4-2-3-5-11(10)19)6-13(18-29-31(24,25)26)30-17-16(23)15(22)14(21)12(8-20)28-17/h2-5,7,12,14-17,20-23H,6,8H2,1H3,(H,24,25,26)
Instrument: Bruker MicrOTOF-Q
Instrument type: LC-ESI-QTOF
Ms type: MS2
Ion mode: POSITIVE
Ionization: ESI
Collision energy: 35.00
Column name: Acquity CSHC18
Retention time: NA
Base peak: 399.1220
Precursor m/z: 399.1220
Precursor type: [M-O3S+H]+
m/z	relative intensity
116.0495	12
117.055	135
118.0644	18
125.0239	10
128.0467	76
129.0506	7
129.9847	8
130.0631	999
131.0666	108
132.0461	51
133.0473	14
142.0573	9
143.0604	44
144.0652	43
145.0567	79
146.061	73
147.055	123
148.0201	35
149.023	18
150.0192	11
155.0603	68
156.0673	164
157.0719	25
160.0226	64
160.072	94
161.0304	115
162.0348	198
163.0399	17
164.0154	12
171.055	30
172.0203	16
173.0317	46
175.0385	21
176.0646	10
177.0424	24
178.0393	9
179.049	8
186.0797	13
187.0318	54
187.0886	14
188.0187	126
189.0461	421
190.0496	55
192.0453	16
203.0443	11
204.0407	8
205.042	31
206.0502	117
207.05	18
220.0634	6
