Mass spectrum: CDP-ETHANOLAMINE; LC-ESI-QFT; MS2; CE: 30eV;  [M-H]-
Name: CDP-ETHANOLAMINE
Class: NA
Formula: C11H20N4O11P2
Exact mass: 446.06038
SMILES: NCCOP(O)(=O)OP(O)(=O)OC[C@H]1O[C@H]([C@H](O)[C@@H]1O)N1C=CC(N)=NC1=O
InChI: InChI=1S/C11H20N4O11P2/c12-2-4-23-27(19,20)26-28(21,22)24-5-6-8(16)9(17)10(25-6)15-3-1-7(13)14-11(15)18/h1,3,6,8-10,16-17H,2,4-5,12H2,(H,19,20)(H,21,22)(H2,13,14,18)/t6-,8-,9-,10-/m1/s1
Instrument: Q-Exactive Orbitrap, Thermo Scientfic; Ultimate 3000 HPLC, Thermo Scientfic
Instrument type: LC-ESI-QFT
Ms type: MS2
Ion mode: NEGATIVE
Ionization: ESI
Collision energy: 30eV
Column name: Acquity CSHC18
Retention time: 0.584 min
Base peak: 445.0531
Precursor m/z: 445.0531
Precursor type: [M-H]-
Precursor intensity: 180
m/z	relative intensity
52.9028	1
52.9044	1
54.7078	1
56.8529	1
58.902	1
60.8727	1
62.4681	1
63.5604	1
69.5121	1
71.121	1
75.3571	1
78.7044	1
78.9574	999
79.3204	1
82.2926	1
85.9523	1
86.1476	1
86.2786	1
86.5099	1
89.3727	1
96.9679	132
110.0343	19
114.98	1
116.5142	1
117.6175	1
125.7765	1
132.6288	1
138.9786	12
140.0104	8
150.9789	8
158.924	147
163.0502	2
174.9788	31
176.9347	9
181.0608	5
182.6552	1
183.9556	19
192.9895	5
201.9665	288
211.0002	15
217.86	1
219.9776	7
226.852	1
243.0174	2
254.9463	6
266.9028	1
272.9569	159
273.9611	2
279.0385	9
286.024	2
304.0341	36
322.0444	138
323.0476	7
334.0095	2
340.9939	1
365.989	1
384.0001	188
385.004	10
402.046	12
445.053	93
446.0545	8
