Mass spectrum: N-CaffeoylAgmatine; LC-ESI-ITFT; MS2; CE: 35eV;  [M+H]+
Name: N-CaffeoylAgmatine
Class: Phenolamide
Formula: C14H20N4O3
Exact mass: 292.1535
SMILES: C1=CC(=C(C=C1C=CC(=O)NCCCCN=C(N)N)O)O
InChI: InChI=1S/C14H20N4O3/c15-14(16)18-8-2-1-7-17-13(21)6-4-10-3-5-11(19)12(20)9-10/h3-6,9,19-20H,1-2,7-8H2,(H,17,21)(H4,15,16,18)
Instrument: LTQ Orbitrap XL, Thermo Scientfic; Dionex Ultimate 300
Instrument type: LC-ESI-ITFT
Ms type: MS2
Ion mode: POSITIVE
Ionization: ESI
Collision energy: 35eV
Column name: Kinetex XB C18 150*2,1 2,6 Âµm, Phenomenex
Retention time: 8.395 min
Base peak: 293.1556
Precursor m/z: 293.1556
Precursor type: [M+H]+
m/z	relative intensity
88.9403	1
96.9767	6
97.9716	1
113.9486	101
114.9932	73
131.0004	9
145.0175	1
157.0036	6
162.9623	52
215.9997	2
222.0608	4
233.0455	214
234.0229	73
251.0624	45
259.0201	13
276.0598	999
