Mass spectrum: Fisetin; LC-ESI-QTOF; MS2; CE: 15.00;  [M+H]+
Name: Fisetin
Class: NA
Formula: C15H10O6
Exact mass: 286.0477
SMILES: C1=CC(=C(C=C1C2=C(C(=O)C3=C(O2)C=C(C=C3)O)O)O)O
InChI: InChI=1S/C15H10O6/c16-8-2-3-9-12(6-8)21-15(14(20)13(9)19)7-1-4-10(17)11(18)5-7/h1-6,16-18,20H
Instrument: Bruker MicrOTOF-Q
Instrument type: LC-ESI-QTOF
Ms type: MS2
Ion mode: POSITIVE
Ionization: ESI
Collision energy: 15.00
Column name: Acquity CSHC18
Retention time: NA
Base peak: 287.0550
Precursor m/z: 287.0550
Precursor type: [M+H]+
m/z	relative intensity
241.0488	12
287.0558	186
288.0573	999
