Mass spectrum: esculin; LC-ESI-ITFT; MS2; CE: 0.3;  [M-H]-
Name: esculin
Class: coumarins
Formula: C15H16O9
Exact mass: 340.0794
SMILES: C1=CC(=O)OC2=CC(=C(C=C21)OC3C(C(C(C(O3)CO)O)O)O)O
InChI: InChI=1S/C15H16O9/c16-5-10-12(19)13(20)14(21)15(24-10)23-9-3-6-1-2-11(18)22-8(6)4-7(9)17/h1-4,10,12-17,19-21H,5H2
Instrument: LTQ-Orbitrap XL hybrid mass spectrometer (Thermo Scientific)
Instrument type: LC-ESI-ITFT
Ms type: MS2
Ion mode: NEGATIVE
Ionization: ESI
Collision energy: 0.3
Column name: Acquity CSHC18
Retention time: 3.076 min
Base peak: 339.0717
Precursor m/z: 339.0717
Precursor type: [M-H]-
Precursor intensity: 12240500
m/z	relative intensity
133.0298	2
167.0909	3
175.6596	1
175.9996	1
176.3391	2
176.7538	1
176.7682	1
176.7824	1
176.8036	1
176.8112	1
176.8178	1
176.826	1
176.8328	1
176.839	1
176.853	1
176.867	2
176.8756	1
176.882	1
176.8959	2
176.9034	2
176.9114	2
176.9174	2
176.925	2
176.9319	2
176.9399	2
176.9458	3
176.9538	3
176.9603	4
176.9683	4
176.9743	5
176.9831	5
176.9883	7
176.9957	3
177.0196	999
177.0456	6
177.0536	5
177.0595	5
177.0669	4
177.0742	4
177.0812	3
177.0882	3
177.0954	3
177.1034	2
177.1093	3
177.1169	2
177.1304	3
177.1391	1
177.1456	1
177.152	2
177.1662	1
177.1802	2
177.1945	1
177.2028	1
177.2091	1
177.2238	1
177.2306	1
177.238	1
177.245	1
177.266	1
177.2732	1
177.3088	1
177.365	1
178.3921	1
197.6783	1
287.0843	1
324.2206	1
