Mass spectrum: Poncirin; LC-ESI-ITFT; MS2; CE: 45eV;  [M+H]+
Name: Poncirin
Class: Flavonoid
Formula: C28H34O14
Exact mass: 594.1949
SMILES: CC1C(C(C(C(O1)OC2C(C(C(OC2OC3=CC(=C4C(=O)CC(OC4=C3)C5=CC=C(C=C5)OC)O)CO)O)O)O)O)O
InChI: InChI=1S/C28H34O14/c1-11-21(32)23(34)25(36)27(38-11)42-26-24(35)22(33)19(10-29)41-28(26)39-14-7-15(30)20-16(31)9-17(40-18(20)8-14)12-3-5-13(37-2)6-4-12/h3-8,11,17,19,21-30,32-36H,9-10H2,1-2H3
Instrument: LTQ Orbitrap XL, Thermo Scientfic; Dionex Ultimate 300
Instrument type: LC-ESI-ITFT
Ms type: MS2
Ion mode: POSITIVE
Ionization: ESI
Collision energy: 45eV
Column name: Alltima C18
Retention time: 13.69 min
Base peak: 595.2014
Precursor m/z: 595.2014
Precursor type: [M+H]+
m/z	relative intensity
178.8354	5
255.1785	4
273.3385	6
283.2946	2
325.3403	5
349.1308	3
371.2132	3
389.2372	5
413.0803	69
425.1732	37
431.1247	999
447.3429	6
457.2023	137
473.0845	394
511.081	55
515.281	3
534.3083	2
559.1162	662
