Mass spectrum: Deoxyadenosine; LC-ESI-ITFT; MS2; CE: 40;  [M-H]-
Name: Deoxyadenosine
Class: Nucleosides, nucleotides, and analogues; Purine nucleosides; Purine 2'-deoxyribonucleosides
Formula: C10H13N5O3
Exact mass: 251.10184
SMILES: NC1=NC=NC2=C1N=CN2[C@H]1C[C@H](O)[C@@H](CO)O1
InChI: InChI=1S/C10H13N5O3/c11-9-8-10(13-3-12-9)15(4-14-8)7-1-5(17)6(2-16)18-7/h3-7,16-17H,1-2H2,(H2,11,12,13)/t5-,6+,7+/m0/s1
Instrument: Thermo Scientific Q-Exactive Focus
Instrument type: LC-ESI-ITFT
Ms type: MS2
Ion mode: NEGATIVE
Ionization: ESI
Collision energy: 40
Column name: Acquity CSHC18
Retention time: 1.477 min
Base peak: 250.09456
Precursor m/z: 250.09456
Precursor type: [M-H]-
m/z	relative intensity
57.9744	39
61.9871	103
65.0132	20
92.0242	179
92.5154	25
107.0351	572
134.0461	999
193.9281	78
234.1131	111
250.1448	18
