Mass spectrum: Naringenin-7-O-rutinoside; LC-ESI-QTOF; MS2; CE: 50eV;  [M+Na]+
Name: Naringenin-7-O-rutinoside
Class: Flavanone
Formula: C27H32O14
Exact mass: 580.1792
SMILES: CC1C(C(C(C(O1)OCC2C(C(C(C(O2)OC3=CC(=C4C(=O)CC(OC4=C3)C5=CC=C(C=C5)O)O)O)O)O)O)O)O
InChI: InChI=1S/C27H32O14/c1-10-20(31)22(33)24(35)26(38-10)37-9-18-21(32)23(34)25(36)27(41-18)39-13-6-14(29)19-15(30)8-16(40-17(19)7-13)11-2-4-12(28)5-3-11/h2-7,10,16,18,20-29,31-36H,8-9H2,1H3
Instrument: TIMS-TOF Pro, Bruker Daltonik; Elute UHPLC System, Bruker Daltonik
Instrument type: LC-ESI-QTOF
Ms type: MS2
Ion mode: POSITIVE
Ionization: ESI
Collision energy: 50eV
Column name: Acquity CSHC18
Retention time: 5.513 min
Base peak: 603.1680
Precursor m/z: 603.1680
Precursor type: [M+Na]+
Precursor intensity: 5629.94
m/z	relative intensity
85.0283	138
184.0346	134
331.1003	222
603.168	999
