Mass spectrum: N-Dodecanoyl-L-homoserine lactone; LC-ESI-ITFT; MS2; CE: 100;  [M+H]+
Name: N-Dodecanoyl-L-homoserine lactone
Class: NA
Formula: C16H29NO3
Exact mass: 283.21474
SMILES: CCCCCCCCCCCC(=O)N[C@H]1CCOC1=O
InChI: InChI=1S/C16H29NO3/c1-2-3-4-5-6-7-8-9-10-11-15(18)17-14-12-13-20-16(14)19/h14H,2-13H2,1H3,(H,17,18)/t14-/m0/s1
Instrument: Thermo Scientific Q-Exactive Focus
Instrument type: LC-ESI-ITFT
Ms type: MS2
Ion mode: POSITIVE
Ionization: ESI
Collision energy: 100
Column name: Acquity CSHC18
Retention time: 2.308 min
Base peak: 284.22202
Precursor m/z: 284.22202
Precursor type: [M+H]+
m/z	relative intensity
53.0028	999
55.0548	294
56.05	726
65.0391	192
68.3688	130
92.5222	345
211.3767	118
217.9708	123
225.6948	125
233.7999	118
