Mass spectrum: GALACTOSAMINE; LC-ESI-QTOF; MS2; CE: 40;  [M+H]+
Name: GALACTOSAMINE
Class: NA
Formula: C6H13NO5
Exact mass: 179.07937
SMILES: N[C@H]1C(O)O[C@H](CO)[C@H](O)[C@@H]1O
InChI: InChI=1S/C6H13NO5/c7-3-5(10)4(9)2(1-8)12-6(3)11/h2-6,8-11H,1,7H2/t2-,3-,4+,5-,6?/m1/s1
Instrument: Agilent 6530Â Q-TOF LC/MS
Instrument type: LC-ESI-QTOF
Ms type: MS2
Ion mode: POSITIVE
Ionization: ESI
Collision energy: 40
Column name: NA
Retention time: 0.200 min
Base peak: 180.08452
Precursor m/z: 180.08452
Precursor type: [M+H]+
Precursor intensity: 125.5
m/z	relative intensity
41.0417	94
42.0446	105
43.0314	110
44.0696	117
45.0393	118
53.0435	124
54.0374	131
55.0171	169
56.0592	196
60.0564	206
68.0496	211
69.0341	225
72.0569	235
81.0334	264
96.0523	320
97.049	406
135.107	999
