Mass spectrum: Pentadecanoic acid; LC-ESI-ITFT; MS2; CE: 10;  [M-H]-
Name: Pentadecanoic acid
Class: Lipids and lipid-like molecules; Fatty Acyls; Fatty acids and conjugates
Formula: C15H30O2
Exact mass: 242.22458
SMILES: CCCCCCCCCCCCCCC(O)=O
InChI: InChI=1S/C15H30O2/c1-2-3-4-5-6-7-8-9-10-11-12-13-14-15(16)17/h2-14H2,1H3,(H,16,17)
Instrument: Thermo Scientific Q-Exactive Focus
Instrument type: LC-ESI-ITFT
Ms type: MS2
Ion mode: NEGATIVE
Ionization: ESI
Collision energy: 10
Column name: Acquity CSHC18
Retention time: 0.360 min
Base peak: 241.21730
Precursor m/z: 241.21730
Precursor type: [M-H]-
m/z	relative intensity
149.0085	57
212.9153	145
212.9373	146
223.0279	999
225.0247	285
240.8705	61
240.9325	144
241.1081	70
241.1444	62
241.217	732
