Mass spectrum: Methylimidazoleacetic acid; LC-ESI-ITFT; MS2; CE: 10;  [M+H]+
Name: Methylimidazoleacetic acid
Class: Organoheterocyclic compounds; Azoles; Imidazoles
Formula: C6H8N2O2
Exact mass: 140.05858
SMILES: CN1C=NC(CC(O)=O)=C1
InChI: InChI=1S/C6H8N2O2/c1-8-3-5(7-4-8)2-6(9)10/h3-4H,2H2,1H3,(H,9,10)
Instrument: Thermo Scientific Q-Exactive Focus
Instrument type: LC-ESI-ITFT
Ms type: MS2
Ion mode: POSITIVE
Ionization: ESI
Collision energy: 10
Column name: Acquity CSHC18
Retention time: 0.348 min
Base peak: 141.06586
Precursor m/z: 141.06586
Precursor type: [M+H]+
m/z	relative intensity
68.0499	5
78.5952	1
95.0607	999
127.1372	1
133.6829	1
141.0658	259
144.9012	1
154.8778	1
157.1604	1
157.1633	1
