Mass spectrum: Herbacetin 8-methyl ether; LC-ESI-QTOF; MS2; CE: 50eV;  [M-H]-
Name: Herbacetin 8-methyl ether
Class: Flavonol
Formula: C16H12O7
Exact mass: 316.0583
SMILES: COC1=C(C=C(C2=C1OC(=C(C2=O)O)C3=CC=C(C=C3)O)O)O
InChI: InChI=1S/C16H12O7/c1-22-15-10(19)6-9(18)11-12(20)13(21)14(23-16(11)15)7-2-4-8(17)5-3-7/h2-6,17-19,21H,1H3
Instrument: TIMS-TOF Pro, Bruker Daltonik; Elute UHPLC System, Bruker Daltonik
Instrument type: LC-ESI-QTOF
Ms type: MS2
Ion mode: NEGATIVE
Ionization: ESI
Collision energy: 50eV
Column name: Acquity CSHC18
Retention time: 7.465 min
Base peak: 315.0441
Precursor m/z: 315.0441
Precursor type: [M-H]-
Precursor intensity: 391081.8
m/z	relative intensity
22.3797	2
29.3592	1
32.5433	1
40.7958	2
41.8346	1
47.4729	2
49.2458	2
51.0231	2
54.0085	3
55.8513	1
59.8209	1
62.1766	1
63.0236	2
65.0016	84
65.1339	2
66.0098	54
67.0179	6
68.0194	1
68.9969	6
73.1868	1
77.0387	3
78.0091	2
79.0178	7
79.6822	1
82.0043	86
82.4446	1
82.8331	1
83.0126	2
84.1455	1
91.016	2
92.0251	5
92.9972	2
94.0035	4
94.4642	1
95.0121	11
96.4282	1
98.2123	1
99.0077	1
105.0333	12
106.0051	2
107.0124	8
107.4352	1
108.9902	2
109.3444	1
109.9825	118
110.1256	1
110.2961	1
110.4999	1
110.6707	1
111.0076	32
111.5233	1
111.8065	1
117.0329	1
120.0231	2
120.9907	2
122.6771	1
123.0074	19
124.0114	1
124.9861	2
125.9893	1
129.0302	4
130.0388	8
131.0494	4
132.0187	7
133.0279	12
134.019	1
135.0046	8
136.9849	13
137.9925	17
139.0001	22
139.2363	1
140.0095	1
141.0319	2
142.9012	1
145.769	1
147.0416	1
149.474	1
149.9911	2
151.0046	2
153.0303	1
154.0404	6
154.8516	2
155.0597	2
157.0273	53
157.2862	1
157.6741	1
158.0326	3
159.2321	2
159.692	1
161.288	1
164.0046	1
164.9814	3
165.9874	50
166.1927	1
166.453	1
166.9965	11
167.9985	2
169.19	2
171.0429	5
172.1541	3
173.02	3
174.0294	10
175.0334	1
176.7838	1
178.994	2
181.0121	5
182.0339	1
183.0437	4
184.0455	1
185.0179	1
187.0351	3
187.8857	1
193.9815	3
194.9115	1
199.0386	3
200.0408	2
201.0277	1
203.029	2
205.038	1
207.9972	1
210.5267	1
211.0418	3
215.0277	1
216.0393	11
217.0462	1
228.0393	6
229.0094	4
242.019	1
243.0258	3
244.0346	10
245.0381	2
255.0253	6
256.0335	8
257.0386	2
271.0598	1
272.029	41
273.0337	5
287.0514	9
288.054	1
299.8807	2
299.9517	2
300.0227	999
300.2412	2
300.4776	2
300.7797	2
300.8767	1
301.0258	121
301.2091	1
301.3159	1
301.3843	1
301.502	1
301.8306	1
302.0252	12
314.9489	2
315.0469	286
315.212	1
315.359	1
315.5284	1
