Mass spectrum: Pipecolic acid; LC-ESI-ITFT; MS2; CE: 30;  [M-H]-
Name: Pipecolic acid
Class: Organic acids and derivatives; Carboxylic acids and derivatives; Amino acids, peptides, and analogues
Formula: C6H11NO2
Exact mass: 129.07898
SMILES: OC(=O)C1CCCCN1
InChI: InChI=1S/C6H11NO2/c8-6(9)5-3-1-2-4-7-5/h5,7H,1-4H2,(H,8,9)
Instrument: Thermo Scientific Q-Exactive Focus
Instrument type: LC-ESI-ITFT
Ms type: MS2
Ion mode: NEGATIVE
Ionization: ESI
Collision energy: 30
Column name: Acquity CSHC18
Retention time: 0.930 min
Base peak: 128.07170
Precursor m/z: 128.07170
Precursor type: [M-H]-
m/z	relative intensity
64.9257	920
86.9839	927
91.6827	898
100.4027	955
103.3596	966
104.2817	936
104.3823	999
105.844	965
140.7394	916
142.2753	898
