Mass spectrum: Tithifolin, 8β-angeloxy-14-hydroxy; LC-ESI-ITFT; MS2; CE: 50eV;  [M+H]+
Name: Tithifolin, 8β-angeloxy-14-hydroxy
Class: Sesquiterpenelactone; Germacrolide
Formula: C20H26O6
Exact mass: 362.1729
SMILES: C\C=C(\C)C(=O)O[C@@H]2C[C@]3(CO)O[C@@H]3CCC(C)=C[C@H]1OC(=O)C(=C)[C@@H]12
InChI: InChI=1S/C20H26O6/c1-5-12(3)18(22)25-15-9-20(10-21)16(26-20)7-6-11(2)8-14-17(15)13(4)19(23)24-14/h5,8,14-17,21H,4,6-7,9-10H2,1-3H3/b11-8?,12-5-/t14-,15-,16-,17+,20-/m1/s1
Instrument: Q Exactive Plus, ThermoFisher Scientific
Instrument type: LC-ESI-ITFT
Ms type: MS2
Ion mode: POSITIVE
Ionization: ESI
Collision energy: 50eV
Column name: Acquity CSHC18
Retention time: 6.392 min
Base peak: 363.1807
Precursor m/z: 363.1807
Precursor type: [M+H]+
Precursor intensity: 3201222
m/z	relative intensity
55.055	17
56.2499	3
57.811	4
69.6306	9
81.3197	4
83.0496	198
95.0499	5
101.1852	4
102.003	4
169.1017	3
171.1154	5
179.0675	4
181.1005	5
187.1128	5
197.0962	3
199.1114	112
201.0899	28
215.1051	16
217.1209	16
227.1075	38
245.1157	64
263.1285	46
291.353	3
345.1716	7
363.1812	999
