Mass spectrum: Spermidine; LC-ESI-ITFT; MS2; CE: 20;  [M+H]+
Name: Spermidine
Class: Organic nitrogen compounds; Organonitrogen compounds; Amines
Formula: C7H19N3
Exact mass: 145.15790
SMILES: NCCCCNCCCN
InChI: InChI=1S/C7H19N3/c8-4-1-2-6-10-7-3-5-9/h10H,1-9H2
Instrument: Thermo Scientific Q-Exactive Focus
Instrument type: LC-ESI-ITFT
Ms type: MS2
Ion mode: POSITIVE
Ionization: ESI
Collision energy: 20
Column name: Acquity CSHC18
Retention time: 0.631 min
Base peak: 146.16518
Precursor m/z: 146.16518
Precursor type: [M+H]+
m/z	relative intensity
55.0548	1
55.2388	1
58.0657	79
70.0656	1
72.0813	999
75.0922	4
84.0812	155
112.1123	132
114.8708	1
159.3444	1
