Mass spectrum: 3-NITRO-L-TYROSINE; LC-ESI-QFT; MS2; CE: 30eV;  [M-H]-
Name: 3-NITRO-L-TYROSINE
Class: NA
Formula: C9H10N2O5
Exact mass: 226.05897
SMILES: C1=CC(=C(C=C1CC(C(=O)O)N)[N+](=O)[O-])O
InChI: InChI=1S/C9H10N2O5/c10-6(9(13)14)3-5-1-2-8(12)7(4-5)11(15)16/h1-2,4,6,12H,3,10H2,(H,13,14)
Instrument: Q-Exactive Orbitrap, Thermo Scientfic; Ultimate 3000 HPLC, Thermo Scientfic
Instrument type: LC-ESI-QFT
Ms type: MS2
Ion mode: NEGATIVE
Ionization: ESI
Collision energy: 30eV
Column name: Acquity CSHC18
Retention time: 1.860 min
Base peak: 225.0517
Precursor m/z: 225.0517
Precursor type: [M-H]-
Precursor intensity: 118
m/z	relative intensity
134.0478	186
164.0433	999
