Mass spectrum: LIOTHYRONINE; LC-ESI-QFT; MS2; CE: 30eV;  [M-H]-
Name: LIOTHYRONINE
Class: NA
Formula: C15H12I3NO4
Exact mass: 650.79005
SMILES: N[C@@H](CC1=CC(I)=C(OC2=CC=C(O)C(I)=C2)C(I)=C1)C(O)=O
InChI: InChI=1S/C15H12I3NO4/c16-9-6-8(1-2-13(9)20)23-14-10(17)3-7(4-11(14)18)5-12(19)15(21)22/h1-4,6,12,20H,5,19H2,(H,21,22)/t12-/m0/s1
Instrument: Q-Exactive Orbitrap, Thermo Scientfic; Ultimate 3000 HPLC, Thermo Scientfic
Instrument type: LC-ESI-QFT
Ms type: MS2
Ion mode: NEGATIVE
Ionization: ESI
Collision energy: 30eV
Column name: Acquity CSHC18
Retention time: 8.782 min
Base peak: 649.7828
Precursor m/z: 649.7828
Precursor type: [M-H]-
Precursor intensity: 195
m/z	relative intensity
52.5472	5
55.1457	5
63.0938	5
66.1677	5
67.3601	5
72.0074	42
72.0093	6
75.5362	5
87.1567	5
92.8636	5
95.2943	7
97.5023	5
126.9035	999
137.7876	6
150.3936	6
252.9727	6
268.7732	6
269.0062	7
287.3194	6
292.5212	6
448.855	23
548.264	9
