Mass spectrum: Unoprostone isopropyl ester; ESI-TOF; MS2; CE: 6.0000000;  [M+H]+
Name: Unoprostone isopropyl ester
Class: NA
Formula: C25H44O5
Exact mass: 424.31887
SMILES: CCCCCCCC(=O)CCC1C(CC(C1CC=CCCCC(=O)OC(C)C)O)O
InChI: InChI=1S/C25H44O5/c1-4-5-6-7-10-13-20(26)16-17-22-21(23(27)18-24(22)28)14-11-8-9-12-15-25(29)30-19(2)3/h8,11,19,21-24,27-28H,4-7,9-10,12-18H2,1-3H3
Instrument: waters xevo g2 TOF
Instrument type: ESI-TOF
Ms type: MS2
Ion mode: POSITIVE
Ionization: ESI
Collision energy: 6.0000000
Column name: Acquity CSHC18
Retention time: 5.387 min
Base peak: 425.32687
Precursor m/z: 425.32687
Precursor type: [M+H]+
m/z	relative intensity
180.1158	3
185.1331	11
187.1121	11
192.0853	2
193.1073	28
193.6087	5
202.1122	15
202.6132	5
203.1437	26
205.1235	28
206.1253	1
210.0989	11
211.1168	491
211.6194	56
213.1217	4
221.1912	4
232.1402	12
247.1703	93
248.1732	12
269.2277	1
311.238	69
312.2396	12
329.2487	178
330.2515	34
331.2546	4
347.2587	226
348.2623	44
349.2691	5
363.294	4
365.2677	70
366.2711	15
371.2953	233
372.2986	62
373.2959	4
389.303	604
390.307	175
391.3111	12
407.3164	999
408.3204	250
409.3223	42
410.3251	3
421.2264	17
423.2718	5
425.3276	9
