Mass spectrum: N-ACETYLSEROTONIN; LC-ESI-QTOF; MS2; CE: 40;  [M-H]-
Name: N-ACETYLSEROTONIN
Class: NA
Formula: C12H14N2O2
Exact mass: 218.10553
SMILES: CC(=O)NCCC1=CNC2=C1C=C(O)C=C2
InChI: InChI=1S/C12H14N2O2/c1-8(15)13-5-4-9-7-14-12-3-2-10(16)6-11(9)12/h2-3,6-7,14,16H,4-5H2,1H3,(H,13,15)
Instrument: Agilent 6530Â Q-TOF LC/MS
Instrument type: LC-ESI-QTOF
Ms type: MS2
Ion mode: NEGATIVE
Ionization: ESI
Collision energy: 40
Column name: NA
Retention time: 0.200 min
Base peak: 217.09755
Precursor m/z: 217.09755
Precursor type: [M-H]-
Precursor intensity: 190
m/z	relative intensity
42.0155	116
58.046	122
89.0333	125
96.9559	198
131.0361	211
133.0425	212
144.0527	956
157.0597	999
