Mass spectrum: Acetyl CoA; LC-ESI-QTOF; MS2; CE: 60;  [M-H]-
Name: Acetyl CoA
Class: O-glucuronides
Formula: C23H38N7O17P3S
Exact mass: 809.1258
SMILES: CC(=O)SCCNC(=O)CCNC(=O)[C@H](O)C(C)(C)COP(O)(=O)OP(O)(=O)OC[C@H]1O[C@H]([C@H](O)[C@@H]1OP(O)(O)=O)N1C=NC2=C1N=CN=C2N
InChI: InChI=1S/C23H38N7O17P3S/c1-12(31)51-7-6-25-14(32)4-5-26-21(35)18(34)23(2,3)9-44-50(41,42)47-49(39,40)43-8-13-17(46-48(36,37)38)16(33)22(45-13)30-11-29-15-19(24)27-10-28-20(15)30/h10-11,13,16-18,22,33-34H,4-9H2,1-3H3,(H,25,32)(H,26,35)(H,39,40)(H,41,42)(H2,24,27,28)(H2,36,37,38)/t13-,16-,17-,18+,22-/m1/s1
Instrument: impact II
Instrument type: LC-ESI-QTOF
Ms type: MS2
Ion mode: NEGATIVE
Ionization: ESI
Collision energy: 60
Column name: Acquity CSHC18
Retention time: 1.874 min
Base peak: 808.1168
Precursor m/z: 808.1168
Precursor type: [M-H]-
m/z	relative intensity
78.9589	114
134.0472	130
158.9254	138
272.9571	205
328.0453	374
339.0782	411
381.0889	418
408.0112	818
461.0545	999
