Mass spectrum: 7-Methylsulfinylheptyl isothiocyanate; LC-ESI-QTOF; MS2; CE: 25.44;  [2M+H]+
Name: 7-Methylsulfinylheptyl isothiocyanate
Class: NA
Formula: C9H17NOS2
Exact mass: 219.0752
SMILES: CS(=O)CCCCCCCN=C=S
InChI: InChI=1S/C9H17NOS2/c1-13(11)8-6-4-2-3-5-7-10-9-12/h2-8H2,1H3
Instrument: Bruker MicrOTOF-Q
Instrument type: LC-ESI-QTOF
Ms type: MS2
Ion mode: POSITIVE
Ionization: ESI
Collision energy: 25.44
Column name: Acquity CSHC18
Retention time: NA
Base peak: 439.1576
Precursor m/z: 439.1576
Precursor type: [2M+H]+
m/z	relative intensity
156.08	400
220.08	999
221.08	110
