Mass spectrum: Isorhapontigenin; LC-ESI-QTOF; MS2; CE: 15.00;  [M-H]-
Name: Isorhapontigenin
Class: NA
Formula: C15H14O4
Exact mass: 258.0892
SMILES: COC1=C(C=CC(=C1)C=CC2=CC(=CC(=C2)O)O)O
InChI: InChI=1S/C15H14O4/c1-19-15-8-10(4-5-14(15)18)2-3-11-6-12(16)9-13(17)7-11/h2-9,16-18H,1H3
Instrument: Bruker MicrOTOF-Q
Instrument type: LC-ESI-QTOF
Ms type: MS2
Ion mode: NEGATIVE
Ionization: ESI
Collision energy: 15.00
Column name: Acquity CSHC18
Retention time: NA
Base peak: 257.0819
Precursor m/z: 257.0819
Precursor type: [M-H]-
m/z	relative intensity
46.08	65
49.855	52
50.92	72
53.43	65
54.315	65
56.9	65
57.42	52
59.13	78
61.125	92
63.96	65
64.76	39
66.105	52
67.18	78
68.43	65
69.46	92
71.63	78
73.92	52
74.79	52
75.78	65
79.04	78
79.54	78
83.36	78
83.87	65
85.775	85
89.19	65
96.62	92
97.27	65
98.29	65
100.6	78
104.09	52
106.2	52
106.69	78
107.3	78
108.23	52
109.4	78
114.43	65
116.16	65
118.855	78
121.13	52
122.24	65
123	105
124.15	105
124.82	78
126.26	65
126.97	92
129.96	65
133.21	131
136	78
137.915	78
139.7	52
141.3475	65
142.93	61
144.06	52
145.88	52
146.35	65
147.14	39
148.23	39
149.2	52
151.07	52
152.44	52
153.51	92
154.71	78
156.7	65
158.71	78
160.2	78
161.84	52
162.75	52
163.54	78
164.6	52
169.08	92
169.66	124
171.04	105
171.65	92
172.05	157
173.65	78
175.77	52
178.91	52
179.32	65
181.725	59
182.85	98
184.44	52
185.06	644
186.28	72
187.1967	83
188.375	59
189.08	78
194.935	98
196.09	144
197.06	999
197.7733	135
199.14	716
200.1725	111
201.12	39
203.56	65
206.13	105
207.4	52
207.82	92
210.15	65
212.345	65
212.99	460
213.56	65
214.035	170
215.06	184
216.47	92
217.02	52
217.565	46
219.98	65
220.59	52
223.03	52
223.9933	481
224.96	394
227.02	65
231.47	59
238.67	65
241.0241	829
243.095	111
246.29	39
257.1	118
258.08	78
284.67	65
315.86	52
320.88	52
350.45	65
366.26	65
394.26	92
404.31	52
419.49	52
443.25	78
463.95	65
476.45	78
478.92	52
496.82	52
501.92	39
511.24	78
556.25	78
586.79	78
687.61	65
716.8	39
894.38	78
1000.69	65
1004.27	65
