Mass spectrum: Leptocarpin, 14-hydroxy; LC-ESI-ITFT; MS2; CE: 50eV;  [M+H]+
Name: Leptocarpin, 14-hydroxy
Class: Sesquiterpenelactone; Heliangolide
Formula: C20H26O7
Exact mass: 378.1679
SMILES: C\C=C(\C)C(=O)O[C@@H]2C[C@@]3(CO)O[C@@H]3C[C@H](O)C(C)=C[C@@H]1OC(=O)C(=C)[C@@H]12
InChI: InChI=1S/C20H26O7/c1-5-10(2)18(23)26-15-8-20(9-21)16(27-20)7-13(22)11(3)6-14-17(15)12(4)19(24)25-14/h5-6,13-17,21-22H,4,7-9H2,1-3H3/b10-5-,11-6?/t13-,14-,15+,16+,17-,20-/m0/s1
Instrument: Q Exactive Plus, ThermoFisher Scientific
Instrument type: LC-ESI-ITFT
Ms type: MS2
Ion mode: POSITIVE
Ionization: ESI
Collision energy: 50eV
Column name: Acquity CSHC18
Retention time: 5.181 min
Base peak: 379.1744
Precursor m/z: 379.1744
Precursor type: [M+H]+
Precursor intensity: 752530000
m/z	relative intensity
81.0522	56
97.047	61
119.068	143
121.0832	175
133.0832	191
135.0621	196
141.0631	201
145.0831	201
147.0622	202
149.0778	215
151.0566	224
157.0826	224
159.0987	304
161.0785	351
165.0729	360
167.0783	361
171.0993	399
173.0778	407
179.0777	439
187.0946	473
189.0733	553
191.0883	615
199.0939	669
217.1027	999
