Mass spectrum: Salipurposid; LC-ESI-QTOF; MS2; CE: 20-40eV;  [M+H]+
Name: Salipurposid
Class: flavonoid
Formula: C21H22O10
Exact mass: 434.1213
SMILES: C=1C=C(C=CC1C2(CC(C3=C(C=C(C=C3OC4(C(C(C(C(CO)(O4)[H])(O)[H])(O)[H])(O)[H])[H])O)O2)=O)[H])O
InChI: InChI=1S/C21H22O10/c22-8-16-18(26)19(27)20(28)21(31-16)30-15-6-11(24)5-14-17(15)12(25)7-13(29-14)9-1-3-10(23)4-2-9/h1-6,13,16,18-24,26-28H,7-8H2
Instrument: Impact II, Bruker; Dionex 3000, Thermo Scientific
Instrument type: LC-ESI-QTOF
Ms type: MS2
Ion mode: POSITIVE
Ionization: ESI
Collision energy: 20-40eV
Column name: Acquity CSHC18
Retention time: 4.644 min
Base peak: 435.1273
Precursor m/z: 435.1273
Precursor type: [M+H]+
Precursor intensity: 11032.13
m/z	relative intensity
177.033	10
189.0369	10
273.0972	999
