Mass spectrum: isoxanthohumol; LC-ESI-ITFT; MS2; CE: 0.3;  [M-H]-
Name: isoxanthohumol
Class: flavanones
Formula: C21H22O5
Exact mass: 354.1467
SMILES: CC(=CCC1=C2C(=C(C=C1O)OC)C(=O)CC(O2)C3=CC=C(C=C3)O)C
InChI: InChI=1S/C21H22O5/c1-12(2)4-9-15-16(23)10-19(25-3)20-17(24)11-18(26-21(15)20)13-5-7-14(22)8-6-13/h4-8,10,18,22-23H,9,11H2,1-3H3
Instrument: LTQ-Orbitrap XL hybrid mass spectrometer (Thermo Scientific)
Instrument type: LC-ESI-ITFT
Ms type: MS2
Ion mode: NEGATIVE
Ionization: ESI
Collision energy: 0.3
Column name: Acquity CSHC18
Retention time: 10.735 min
Base peak: 353.1390
Precursor m/z: 353.1390
Precursor type: [M-H]-
Precursor intensity: 44402590
m/z	relative intensity
101.7425	2
103.1229	2
103.1266	2
103.1289	1
111.2259	1
119.0507	69
122.6986	2
145.0297	9
149.1171	2
152.7934	2
161.1281	2
161.1387	3
165.0923	10
167.7645	3
173.0608	5
189.0921	20
196.1854	7
207.1026	3
212.6738	1
218.0583	24
224.0492	1
229.9724	1
231.5412	7
232.0525	5
232.0744	4
232.2577	4
233.0511	3
233.054	3
233.0567	3
233.0593	4
233.0627	3
233.0645	6
233.07	6
233.0725	7
233.0818	999
233.0922	4
233.0942	6
233.0969	5
233.0997	4
233.1022	5
233.1075	4
234.0849	5
234.1181	3
234.6381	3
235.1605	2
247.0973	105
254.9735	1
286.4473	2
286.4572	2
286.4717	2
287.7514	1
295.0602	2
309.1496	2
311.1287	3
311.6408	1
321.1127	5
323.8031	2
338.1153	7
351.5623	2
