Mass spectrum: L-Tyrosine; LC-ESI-QTOF; MS2; CE: 15.00;  [M-H]-
Name: L-Tyrosine
Class: NA
Formula: C9H11NO3
Exact mass: 181.0739
SMILES: C1=CC(=CC=C1CC(C(=O)O)N)O
InChI: InChI=1S/C9H11NO3/c10-8(9(12)13)5-6-1-3-7(11)4-2-6/h1-4,8,11H,5,10H2,(H,12,13)
Instrument: Bruker MicrOTOF-Q
Instrument type: LC-ESI-QTOF
Ms type: MS2
Ion mode: NEGATIVE
Ionization: ESI
Collision energy: 15.00
Column name: Acquity CSHC18
Retention time: NA
Base peak: 180.0666
Precursor m/z: 180.0666
Precursor type: [M-H]-
m/z	relative intensity
45.93	77
46.9967	89
49	49
54.76	82
55.99	60
60.94	66
63.08	82
65.215	85
66.45	71
67.15	68
69.09	44
69.5	82
73.81	60
75.48	66
76.825	68
79.54	55
85.385	74
86.265	107
90.23	71
91.29	55
91.73	60
92.58	104
93.03	264
94.195	57
95.995	74
97.37	60
98.81	60
100.29	49
100.81	66
102.72	77
104.23	71
104.71	60
105.48	77
106.18	112
107.04	209
108.05	66
114.8	71
115.66	77
117.02	88
118.8867	999
119.995	217
123.79	55
129.17	60
133.06	165
134.06	165
136.07	88
145.86	77
153.89	66
155.84	55
162.05	104
163.04	616
163.63	71
164.05	121
166.47	44
180.07	330
228.24	60
238.99	71
251.8	49
281.81	60
302.83	55
313.85	88
322.95	60
355.01	44
373.7	66
401.755	49
495.66	71
559.31	60
678.37	82
724.83	44
995.37	44
