Mass spectrum: Riboflavin; LC-ESI-QTOF; MS2; CE: 20.63;  [M-H]-
Name: Riboflavin
Class: NA
Formula: C17H20N4O6
Exact mass: 376.1383
SMILES: CC1=CC2=C(C=C1C)N(C3=NC(=O)NC(=O)C3=N2)CC(C(C(CO)O)O)O
InChI: InChI=1S/C17H20N4O6/c1-7-3-9-10(4-8(7)2)21(5-11(23)14(25)12(24)6-22)15-13(18-9)16(26)20-17(27)19-15/h3-4,11-12,14,22-25H,5-6H2,1-2H3,(H,20,26,27)
Instrument: Bruker MicrOTOF-Q
Instrument type: LC-ESI-QTOF
Ms type: MS2
Ion mode: NEGATIVE
Ionization: ESI
Collision energy: 20.63
Column name: Acquity CSHC18
Retention time: NA
Base peak: 375.1310
Precursor m/z: 375.1310
Precursor type: [M-H]-
m/z	relative intensity
46.95	50
48.08	52
50.85	52
53.72	57
54.47	52
59.86	67
67.21	76
69.97	62
70.66	57
71.69	45
72.15	55
74.15	45
76.3	55
82.46	45
83.29	35
94.03	50
99.38	67
102.38	45
121.04	55
122.96	55
124.28	59
125.45	50
126.28	50
127.09	52
155.11	55
160.43	71
161	47
162.89	43
163.97	67
171.12	47
174.8	62
179.25	64
183.89	43
187.62	47
188.33	52
191.82	47
196.78	83
198.04	126
204.17	52
206.56	52
207.83	74
209.87	47
211.09	47
211.66	91
212.24	999
213.09	150
213.56	45
214.1	52
215.56	45
218.33	52
220.99	62
223.03	62
224.09	47
225.27	62
230.26	45
232.77	88
238.99	55
240.06	141
241.015	428
242.08	174
243.08	50
244.09	67
245.71	43
254.17	69
255.06	832
256.14	200
257.97	38
267.09	124
286.87	45
305.68	45
342.94	59
467.77	62
477.9	83
523.64	59
554.08	57
556.19	55
572.94	52
609.51	45
621.26	55
682.04	38
692.76	47
758.5	38
786.93	57
820.21	38
947.94	64
951.5	45
