Mass spectrum: GLUTARYLCARNITINE; LC-ESI-QTOF; MS2; CE: 20;  [M-H]-
Name: GLUTARYLCARNITINE
Class: NA
Formula: C12H21NO6
Exact mass: 275.13689
SMILES: C[N+](C)(C)C[C@H](CC([O-])=O)OC(=O)CCCC(O)=O
InChI: InChI=1S/C12H21NO6/c1-13(2,3)8-9(7-11(16)17)19-12(18)6-4-5-10(14)15/h9H,4-8H2,1-3H3,(H-,14,15,16,17)/t9-/m0/s1
Instrument: Agilent 6530Â Q-TOF LC/MS
Instrument type: LC-ESI-QTOF
Ms type: MS2
Ion mode: NEGATIVE
Ionization: ESI
Collision energy: 20
Column name: NA
Retention time: 0.200 min
Base peak: 274.12912
Precursor m/z: 274.12912
Precursor type: [M-H]-
Precursor intensity: 169
m/z	relative intensity
41.0064	109
59.0131	209
69.043	373
87.0614	399
113.0325	530
131.0466	999
