Mass spectrum: 3,4,5-Trihydroxystilbene-3-beta-monoglucoside; LC-ESI-QTOF; MS2; CE: 21.68;  [M-H]-
Name: 3,4,5-Trihydroxystilbene-3-beta-monoglucoside
Class: NA
Formula: C20H22O8
Exact mass: 390.1315
SMILES: C1=CC(=CC=C1C=CC2=CC(=CC(=C2)OC3C(C(C(C(O3)CO)O)O)O)O)O
InChI: InChI=1S/C20H22O8/c21-10-16-17(24)18(25)19(26)20(28-16)27-15-8-12(7-14(23)9-15)2-1-11-3-5-13(22)6-4-11/h1-9,16-26H,10H2
Instrument: Bruker MicrOTOF-Q
Instrument type: LC-ESI-QTOF
Ms type: MS2
Ion mode: NEGATIVE
Ionization: ESI
Collision energy: 21.68
Column name: Acquity CSHC18
Retention time: NA
Base peak: 389.1242
Precursor m/z: 389.1242
Precursor type: [M-H]-
m/z	relative intensity
114.3661	12
117.0284	10
119.0478	12
133.6753	14
143.0483	79
144.0585	15
145.0284	17
157.0618	24
159.0825	72
181.0719	18
182.0771	14
183.0799	131
184.0526	31
185.0072	260
186.0651	65
209.0669	15
211.0399	12
212.0468	11
225.0578	198
227.3628	999
230.079	15
241.0856	13
269.0852	14
