Mass spectrum: Miltirone; LC-ESI-QFT; MS2; CE: 15,30,45 (NCE);  [M+H]+
Name: Miltirone
Class: NA
Formula: C19H22O2
Exact mass: 282.1620
SMILES: CC(C)C1=CC2=C(C(=O)C1=O)C1=C(C=C2)C(C)(C)CCC1
InChI: InChI=1S/C19H22O2/c1-11(2)14-10-12-7-8-15-13(6-5-9-19(15,3)4)16(12)18(21)17(14)20/h7-8,10-11H,5-6,9H2,1-4H3
Instrument: QE Focus, Thermo Scientfic; UPLC I-Class, Waters
Instrument type: LC-ESI-QFT
Ms type: MS2
Ion mode: POSITIVE
Ionization: ESI
Collision energy: 15,30,45 (NCE)
Column name: Acquity CSHC18
Retention time: 5.079 min
Base peak: 283.1693
Precursor m/z: 283.1693
Precursor type: [M+H]+
Precursor intensity: 1889454000
m/z	relative intensity
52.3693	2
57.7461	2
63.4316	2
98.7133	2
115.451	3
153.0693	5
153.5684	2
165.0701	6
178.0779	3
179.0852	6
180.093	13
181.0647	27
190.0775	3
193.1014	4
195.082	10
195.117	91
198.0677	6
199.0751	16
205.1009	14
207.0798	7
207.1171	4
208.0884	34
209.0952	12
209.1313	4
211.0755	18
211.1133	3
212.0823	3
213.0921	3
221.0968	6
222.1038	17
222.1402	6
223.1118	350
224.12	4
225.091	50
236.12	6
237.1282	23
237.1639	58
239.1066	6
240.1144	166
241.1224	114
247.1481	3
250.1349	19
253.1222	13
254.1297	46
265.1587	191
268.1456	32
283.1693	999
