Mass spectrum: L-Tyrosine; LC-ESI-QTOF; MS2; CE: 15.00;  [M+H]+
Name: L-Tyrosine
Class: NA
Formula: C9H11NO3
Exact mass: 181.0739
SMILES: C1=CC(=CC=C1CC(C(=O)O)N)O
InChI: InChI=1S/C9H11NO3/c10-8(9(12)13)5-6-1-3-7(11)4-2-6/h1-4,8,11H,5,10H2,(H,12,13)
Instrument: Bruker MicrOTOF-Q
Instrument type: LC-ESI-QTOF
Ms type: MS2
Ion mode: POSITIVE
Ionization: ESI
Collision energy: 15.00
Column name: Acquity CSHC18
Retention time: NA
Base peak: 182.0812
Precursor m/z: 182.0812
Precursor type: [M+H]+
m/z	relative intensity
91.0508	26
95.0467	39
118.0644	46
119.0487	50
120.0511	81
123.0436	95
124.0465	107
136.0759	163
137.0774	479
147.0443	618
165.0557	999
