Mass spectrum: Prostaglandin F2-beta (tromethamine salt); ESI-TOF; MS2; CE: 6.0000000;  [M+H]+
Name: Prostaglandin F2-beta (tromethamine salt)
Class: NA
Formula: C20H34O5
Exact mass: 354.24062
SMILES: O[C@H]1[C@H](C/C=C\CCCC(O)=O)[C@@H](/C=C/[C@@H](O)CCCCC)[C@H](O)C1
InChI: InChI=1S/C20H34O5/c1-2-3-6-9-15(21)12-13-17-16(18(22)14-19(17)23)10-7-4-5-8-11-20(24)25/h4,7,12-13,15-19,21-23H,2-3,5-6,8-11,14H2,1H3,(H,24,25)/b7-4-,13-12+/t15-,16+,17+,18+,19+/m0/s1
Instrument: waters xevo g2 TOF
Instrument type: ESI-TOF
Ms type: MS2
Ion mode: POSITIVE
Ionization: ESI
Collision energy: 6.0000000
Column name: Acquity CSHC18
Retention time: 3.464 min
Base peak: 355.24862
Precursor m/z: 355.24862
Precursor type: [M+H]+
m/z	relative intensity
105.0709	5
119.0165	3
131.0868	4
145.1004	3
173.1312	6
183.0988	1
185.1141	5
187.1121	23
189.1291	4
191.1097	7
199.1131	8
201.1475	4
203.1613	14
205.1238	15
213.1283	4
217.1412	22
221.1524	5
231.1408	9
239.1772	14
241.1969	6
255.192	10
257.1909	92
259.2051	13
263.201	45
265.214	58
266.1945	3
273.2183	16
275.2007	112
276.202	13
277.2102	7
283.2063	160
284.2081	22
285.2192	9
291.2296	14
293.2117	8
299.2054	13
300.2032	3
301.2173	999
302.2196	226
303.23	73
304.2341	11
317.2135	31
318.1674	2
319.2271	473
320.231	101
321.2362	15
331.1576	4
333.2413	9
335.2236	26
336.2308	3
337.2385	92
338.2409	16
347.1312	71
348.134	8
356.2095	25
356.71	8
