Mass spectrum: (20R,22R,25R)-3beta-Acetoxy-22,26-acetimino-5alpha-cholestan-16beta,20-diol; APCI-ITFT; MS2; CE: CID 35;  [M-H]-
Name: (20R,22R,25R)-3beta-Acetoxy-22,26-acetimino-5alpha-cholestan-16beta,20-diol
Class: NA
Formula: C31H51NO5
Exact mass: 517.37672
SMILES: C[C@@H](CN1C(C)=O)CC[C@@H]1[C@](C)(O)[C@H]2[C@@H](O)C[C@@]3([H])[C@]4([H])CC[C@@]5([H])C[C@@H](OC(C)=O)CC[C@]5(C)[C@@]4([H])CC[C@]23C
InChI: InChI=1S/C31H51NO5/c1-18-7-10-27(32(17-18)19(2)33)31(6,36)28-26(35)16-25-23-9-8-21-15-22(37-20(3)34)11-13-29(21,4)24(23)12-14-30(25,28)5/h18,21-28,35-36H,7-17H2,1-6H3/t18-,21+,22+,23-,24+,25+,26+,27-,28+,29+,30+,31+/m1/s1
Instrument: Orbitrap Elite
Instrument type: APCI-ITFT
Ms type: MS2
Ion mode: NEGATIVE
Ionization: APCI
Collision energy: CID 35
Column name: Acquity CSHC18
Retention time: 0.168 min
Base peak: 516.36760
Precursor m/z: 516.36760
Precursor type: [M-H]-
Precursor intensity: 5152973
m/z	relative intensity
141.7249	1
143.8236	1
147.9384	1
148.112	2
148.1866	3
148.361	3
148.6302	1
152.0633	1
152.6748	2
152.7506	1
152.8362	1
152.8587	3
152.9346	5
153.1174	6
153.1941	1
153.3012	1
153.3796	2
153.3987	1
156.9993	1
157.6188	1
157.6391	1
157.7204	1
157.8126	1
157.8348	2
157.912	4
158.1081	5
158.1857	1
158.2981	1
158.3799	2
163.138	2
163.3414	2
163.6293	1
164.0994	7
164.1138	12
171.0475	2
171.1394	1
171.3561	2
175.9582	1
176.7175	1
176.9206	1
176.9428	2
176.9629	1
177.0415	2
177.0576	1
177.2714	4
177.2856	2
177.4999	1
177.597	1
177.6213	1
182.1072	5
182.122	50
182.9152	1
183.127	5
183.1545	2
183.1715	1
183.2563	2
183.2733	2
183.4922	2
183.5134	3
183.7391	1
183.8392	1
183.8563	1
189.6858	1
189.8021	1
189.82	1
190.0551	2
190.073	2
190.3289	1
190.4165	1
190.4345	1
196.9931	1
199.7755	1
200.1292	1
200.165	1
207.2067	1
207.2373	2
207.3573	1
207.6283	1
207.6488	3
207.9384	1
214.6561	1
215.0899	2
215.1223	3
215.252	2
215.4277	1
215.5359	1
215.5576	4
215.8639	2
215.9942	1
223.4318	2
223.4804	1
223.6034	1
223.8926	1
223.9298	3
224.2541	2
224.3921	1
231.9782	1
232.2716	1
232.3231	1
241.3352	1
241.6723	1
241.698	2
241.8524	1
242.2164	1
246.0011	1
246.5334	1
251.2699	1
251.6554	1
251.816	1
252.2062	1
256.1863	1
256.2284	2
256.6254	1
256.7943	3
257.1926	1
267.0585	1
267.122	1
267.7093	2
268.1333	2
278.0696	1
278.2243	1
278.2561	2
278.6417	1
278.7093	3
278.9005	1
278.9483	1
279.1597	1
279.3474	1
279.3993	1
290.3296	1
290.3846	1
290.5498	1
290.5837	3
291.0334	2
291.0631	5
291.2672	1
291.3224	1
291.548	1
291.7526	3
291.8037	1
303.4774	1
303.5317	1
303.7127	1
303.749	2
304.2069	1
304.2614	4
304.4431	1
304.4795	1
304.7751	1
304.9618	1
304.9937	3
315.1898	1
315.2282	3
317.8297	1
318.3198	1
318.3781	2
318.6116	1
319.1621	2
324.9217	1
325.7047	1
331.2298	15
332.2317	2
333.2462	2
339.6492	2
339.9064	1
340.4754	1
340.513	3
341.1267	1
341.3802	1
341.4503	1
347.2619	3
355.6823	1
356.2626	1
356.3317	3
357.2425	679
358.2436	121
358.2847	5
361.0682	1
375.254	999
375.3128	37
376.2572	226
376.3413	6
376.9833	1
393.5198	1
393.5999	1
393.9275	2
394.5972	1
394.6844	4
394.9998	1
395.3897	1
395.4435	1
395.7127	1
395.7666	3
396.5288	1
414.3828	1
415.6413	1
416.8109	1
424.2098	1
425.3557	1
425.4158	2
426.2653	1
447.4985	1
447.5957	2
447.9848	1
448.5125	1
448.8377	2
448.9028	4
449.7584	1
449.8237	2
450.2157	2
450.3138	1
456.3415	1
470.3586	1
472.8645	2
472.9701	2
474.3592	717
475.3601	237
476.3615	1
476.8213	1
480.3413	1
498.3547	5
499.3585	2
500.3639	1
500.4405	2
500.5554	1
500.9485	1
501.0156	1
501.986	1
502.1111	4
503.1233	1
503.2006	3
503.5871	1
503.6644	3
504.7589	1
