Mass spectrum: Phenylacetylglutamine; LC-ESI-ITFT; MS2; CE: 10;  [M+H]+
Name: Phenylacetylglutamine
Class: Organic acids and derivatives; Carboxylic acids and derivatives; Amino acids, peptides, and analogues
Formula: C13H16N2O4
Exact mass: 264.11101
SMILES: NC(=O)CC[C@H](NC(=O)CC1=CC=CC=C1)C(O)=O
InChI: InChI=1S/C13H16N2O4/c14-11(16)7-6-10(13(18)19)15-12(17)8-9-4-2-1-3-5-9/h1-5,10H,6-8H2,(H2,14,16)(H,15,17)(H,18,19)/t10-/m0/s1
Instrument: Thermo Scientific Q-Exactive Focus
Instrument type: LC-ESI-ITFT
Ms type: MS2
Ion mode: POSITIVE
Ionization: ESI
Collision energy: 10
Column name: Acquity CSHC18
Retention time: 0.348 min
Base peak: 265.11829
Precursor m/z: 265.11829
Precursor type: [M+H]+
m/z	relative intensity
84.0447	59
91.0545	43
101.0711	29
129.0658	173
130.0499	999
136.0756	149
147.0762	163
247.1073	54
248.0913	69
265.1177	107
