Mass spectrum: VALINE; LC-ESI-QTOF; MS2; CE: 40;  [M-H]-
Name: VALINE
Class: NA
Formula: C5H11NO2
Exact mass: 117.07898
SMILES: CC(C)[C@H](N)C(O)=O
InChI: InChI=1S/C5H11NO2/c1-3(2)4(6)5(7)8/h3-4H,6H2,1-2H3,(H,7,8)/t4-/m0/s1
Instrument: Agilent 6530Â Q-TOF LC/MS
Instrument type: LC-ESI-QTOF
Ms type: MS2
Ion mode: NEGATIVE
Ionization: ESI
Collision energy: 40
Column name: NA
Retention time: 0.200 min
Base peak: 116.07383
Precursor m/z: 116.07383
Precursor type: [M-H]-
Precursor intensity: 129
m/z	relative intensity
40.4033	27
40.407	13
49.831	97
49.835	166
49.8391	222
49.8431	138
49.8472	41
49.8512	27
49.8553	13
49.8715	41
49.8755	55
56.5741	27
61.9494	13
67.3378	13
68.5811	69
68.5858	596
68.5906	999
68.5953	957
68.6001	527
68.6048	291
68.6096	249
68.6143	166
68.6191	111
68.6238	55
68.6286	27
68.7379	13
68.7426	13
74.1114	13
78.8396	13
80.7966	13
82.1526	27
86.4698	13
102.4388	13
109.4436	13
114.5468	83
114.553	97
114.5591	13
118.0905	13
