Mass spectrum: Quercetin-3-O-arabinoglucoside; LC-ESI-QTOF; MS2; CE: 50eV;  [M-H]-
Name: Quercetin-3-O-arabinoglucoside
Class: Flavonol
Formula: C26H28O16
Exact mass: 596.1377
SMILES: C1C(C(C(C(O1)OCC2C(C(C(C(O2)OC3=C(OC4=CC(=CC(=C4C3=O)O)O)C5=CC(=C(C=C5)O)O)O)O)O)O)O)O
InChI: InChI=1S/C26H28O16/c27-9-4-12(30)16-14(5-9)40-23(8-1-2-10(28)11(29)3-8)24(19(16)34)42-26-22(37)20(35)18(33)15(41-26)7-39-25-21(36)17(32)13(31)6-38-25/h1-5,13,15,17-18,20-22,25-33,35-37H,6-7H2
Instrument: TIMS-TOF Pro, Bruker Daltonik; Elute UHPLC System, Bruker Daltonik
Instrument type: LC-ESI-QTOF
Ms type: MS2
Ion mode: NEGATIVE
Ionization: ESI
Collision energy: 50eV
Column name: Acquity CSHC18
Retention time: 4.835 min
Base peak: 595.1210
Precursor m/z: 595.1210
Precursor type: [M-H]-
Precursor intensity: 188736.6
m/z	relative intensity
114.9375	1
116.9254	27
117.9267	3
118.9253	1
151.0008	15
152.0061	1
163.0026	3
178.994	5
190.9977	1
216.037	1
220.0625	1
225.6882	1
255.0228	2
271.0183	2
284.3782	2
286.1945	1
286.5254	3
287.495	1
289.3668	1
290.4541	1
291.7723	1
297.4936	1
298.7268	2
300.0227	15
301.0286	22
301.2858	1
301.4418	1
302.0306	2
303.8612	1
304.1883	1
308.6235	1
309.8768	1
316.8013	1
323.408	1
331.9963	1
485.8077	1
491.1744	1
544.7133	1
594.6653	1
594.8172	1
594.9691	1
595.121	999
595.373	1
595.4558	2
595.5664	2
