Mass spectrum: Cysteamine; LC-ESI-ITFT; MS2; CE: 40;  [M+H]+
Name: Cysteamine
Class: Organosulfur compounds; Thiols; Alkylthiols
Formula: C2H7NS
Exact mass: 77.02992
SMILES: NCCS
InChI: InChI=1S/C2H7NS/c3-1-2-4/h4H,1-3H2
Instrument: Thermo Scientific Q-Exactive Focus
Instrument type: LC-ESI-ITFT
Ms type: MS2
Ion mode: POSITIVE
Ionization: ESI
Collision energy: 40
Column name: Acquity CSHC18
Retention time: 1.463 min
Base peak: 78.03720
Precursor m/z: 78.03720
Precursor type: [M+H]+
m/z	relative intensity
57.9877	127
58.9955	236
61.0112	999
65.1897	104
75.8072	104
82.5767	119
88.0448	109
96.1661	116
96.2213	108
96.9392	108
