Mass spectrum: Esculetin; LC-ESI-QTOF; MS2; CE: 50eV;  [M+H]+
Name: Esculetin
Class: Coumarin
Formula: C9H6O4
Exact mass: 178.0266
SMILES: C1=CC(=O)OC2=CC(=C(C=C21)O)O
InChI: InChI=1S/C9H6O4/c10-6-3-5-1-2-9(12)13-8(5)4-7(6)11/h1-4,10-11H
Instrument: TIMS-TOF Pro, Bruker Daltonik; Elute UHPLC System, Bruker Daltonik
Instrument type: LC-ESI-QTOF
Ms type: MS2
Ion mode: POSITIVE
Ionization: ESI
Collision energy: 50eV
Column name: Acquity CSHC18
Retention time: 4.366 min
Base peak: 179.0331
Precursor m/z: 179.0331
Precursor type: [M+H]+
Precursor intensity: 212081.7
m/z	relative intensity
36.9109	3
41.0389	9
50.0129	15
51.0222	59
53.0386	17
58.521	5
63.0236	6
68.9851	3
76.0313	12
77.0264	18
78.8825	6
88.6049	3
89.0385	27
94.0414	5
105.0339	58
106.0379	12
109.0273	9
117.0351	19
123.0334	17
123.044	999
123.3592	7
124.0475	74
128.7061	6
133.0275	186
134.0341	28
135.0444	76
136.0456	8
140.4857	1
150.0302	102
151.0386	205
152.0425	14
156.1687	5
179.014	12
179.4133	12
