Mass spectrum: 5-(3-Methylbut-2-enoxy)furo[2,3-h]chromen-2-one; LC-ESI-ITFT; MS2; CE: 45eV;  [M-H]-
Name: 5-(3-Methylbut-2-enoxy)furo[2,3-h]chromen-2-one
Class: coumarin
Formula: C16H14O4
Exact mass: 270.0892
SMILES: CC(=CCOC1=C2C=CC(=O)OC2=C3C=COC3=C1)C
InChI: InChI=1S/C16H14O4/c1-10(2)5-7-18-13-9-14-12(6-8-19-14)16-11(13)3-4-15(17)20-16/h3-6,8-9H,7H2,1-2H3
Instrument: LTQ Orbitrap XL, Thermo Scientfic; Dionex Ultimate 300
Instrument type: LC-ESI-ITFT
Ms type: MS2
Ion mode: NEGATIVE
Ionization: ESI
Collision energy: 45eV
Column name: Alltima C18
Retention time: 25.97 min
Base peak: 269.0799
Precursor m/z: 269.0799
Precursor type: [M-H]-
m/z	relative intensity
145.0371	18
174.0236	17
181.126	124
182.9902	143
195.1841	162
197.0606	999
209.0743	531
211.1245	112
239.1442	211
251.1334	241
267.0642	607
