Mass spectrum: 3,4-DIHYDROXYPHENYLGLYCOL; LC-ESI-QTOF; MS2; CE: 10;  [M-H]-
Name: 3,4-DIHYDROXYPHENYLGLYCOL
Class: NA
Formula: C8H10O4
Exact mass: 170.05791
SMILES: OCC(O)C1=CC(O)=C(O)C=C1
InChI: InChI=1S/C8H10O4/c9-4-8(12)5-1-2-6(10)7(11)3-5/h1-3,8-12H,4H2
Instrument: Agilent 6530Â Q-TOF LC/MS
Instrument type: LC-ESI-QTOF
Ms type: MS2
Ion mode: NEGATIVE
Ionization: ESI
Collision energy: 10
Column name: NA
Retention time: 0.200 min
Base peak: 169.05180
Precursor m/z: 169.05180
Precursor type: [M-H]-
Precursor intensity: 126
m/z	relative intensity
93.0348	117
105.0332	118
108.0191	161
122.051	476
123.0636	880
151.0595	999
