Mass spectrum: URACIL; LC-ESI-QTOF; MS2; CE: 40;  [M-H]-
Name: URACIL
Class: NA
Formula: C4H4N2O2
Exact mass: 112.02728
SMILES: O=C1NC=CC(=O)N1
InChI: InChI=1S/C4H4N2O2/c7-3-1-2-5-4(8)6-3/h1-2H,(H2,5,6,7,8)
Instrument: Agilent 6530Â Q-TOF LC/MS
Instrument type: LC-ESI-QTOF
Ms type: MS2
Ion mode: NEGATIVE
Ionization: ESI
Collision energy: 40
Column name: NA
Retention time: 0.200 min
Base peak: 111.02184
Precursor m/z: 111.02184
Precursor type: [M-H]-
Precursor intensity: 155
m/z	relative intensity
42.0139	999
