Mass spectrum: N1-ACETYLSPERMINE; LC-ESI-QFT; MS2; CE: 30eV;  [M+H]+
Name: N1-ACETYLSPERMINE
Class: NA
Formula: C12H28N4O
Exact mass: 244.22631
SMILES: CC(=O)NCCCNCCCCNCCCN
InChI: InChI=1S/C12H28N4O/c1-12(17)16-11-5-10-15-8-3-2-7-14-9-4-6-13/h14-15H,2-11,13H2,1H3,(H,16,17)
Instrument: Q-Exactive Orbitrap, Thermo Scientfic; Ultimate 3000 HPLC, Thermo Scientfic
Instrument type: LC-ESI-QFT
Ms type: MS2
Ion mode: POSITIVE
Ionization: ESI
Collision energy: 30eV
Column name: Acquity CSHC18
Retention time: 0.554 min
Base peak: 245.2336
Precursor m/z: 245.2336
Precursor type: [M+H]+
Precursor intensity: 113
m/z	relative intensity
58.066	29
60.7705	1
72.0452	4
72.0816	34
75.6705	1
77.8557	1
79.2234	1
80.2045	1
81.9248	1
84.0815	37
92.3046	1
96.715	1
97.9956	1
99.0925	10
100.0764	563
101.0797	14
104.2822	1
105.2934	1
112.1127	499
113.116	17
116.2979	1
129.1391	999
130.1373	2
130.1424	34
151.2032	1
171.1497	806
172.1463	2
172.153	37
182.999	1
191.9544	1
194.6013	1
221.9055	2
221.9319	1
227.2235	25
245.0635	2
245.2342	216
246.2379	14
