Mass spectrum: Biochanin A; LC-ESI-ITFT; MS2; CE: 40;  [M-H]-
Name: Biochanin A
Class: Phenylpropanoids and polyketides; Isoflavonoids; O-methylated isoflavonoids
Formula: C16H12O5
Exact mass: 284.06847
SMILES: COC1=CC=C(C=C1)C1=COC2=CC(O)=CC(O)=C2C1=O
InChI: InChI=1S/C16H12O5/c1-20-11-4-2-9(3-5-11)12-8-21-14-7-10(17)6-13(18)15(14)16(12)19/h2-8,17-18H,1H3
Instrument: Thermo Scientific Q-Exactive Focus
Instrument type: LC-ESI-ITFT
Ms type: MS2
Ion mode: NEGATIVE
Ionization: ESI
Collision energy: 40
Column name: Acquity CSHC18
Retention time: 1.475 min
Base peak: 283.06119
Precursor m/z: 283.06119
Precursor type: [M-H]-
m/z	relative intensity
132.0205	640
135.0076	104
167.0492	158
195.0443	278
211.0394	903
223.0396	256
239.0346	999
240.0425	142
267.0298	909
268.0377	389
