Mass spectrum: Pelargonidin 3-glucoside; LC-ESI-QTOF; MS2; CE: 50eV;  [M]+
Name: Pelargonidin 3-glucoside
Class: Anthocyanin
Formula: [C21H21O10]+
Exact mass: 433.1129
SMILES: C1=CC(=CC=C1C2=[O+]C3=CC(=CC(=C3C=C2OC4C(C(C(C(O4)CO)O)O)O)O)O)O
InChI: InChI=1S/C21H20O10/c22-8-16-17(26)18(27)19(28)21(31-16)30-15-7-12-13(25)5-11(24)6-14(12)29-20(15)9-1-3-10(23)4-2-9/h1-7,16-19,21-22,26-28H,8H2,(H2-,23,24,25)/p+1
Instrument: TIMS-TOF Pro, Bruker Daltonik; Elute UHPLC System, Bruker Daltonik
Instrument type: LC-ESI-QTOF
Ms type: MS2
Ion mode: POSITIVE
Ionization: ESI
Collision energy: 50eV
Column name: Acquity CSHC18
Retention time: 3.682 min
Base peak: 433.1078
Precursor m/z: 433.1078
Precursor type: [M]+
Precursor intensity: 273840
m/z	relative intensity
54.8276	1
121.0275	4
188.857	1
197.0574	3
199.5464	1
215.0686	1
255.2524	1
262.3221	1
270.654	1
270.9882	1
271.0274	8
271.0562	999
271.5265	5
271.55	5
271.9267	1
272.0523	4
272.0627	97
273.0319	1
273.0634	7
433.1078	35
