Mass spectrum: Isoferulic acid; LC-ESI-ITFT; MS2; CE: 45eV;  [M-H]-
Name: Isoferulic acid
Class: phenolic acid
Formula: C10H10O4
Exact mass: 194.0579
SMILES: COC1=C(C=C(C=C1)C=CC(=O)O)O
InChI: InChI=1S/C10H10O4/c1-14-9-4-2-7(6-8(9)11)3-5-10(12)13/h2-6,11H,1H3,(H,12,13)
Instrument: LTQ Orbitrap XL, Thermo Scientfic; Dionex Ultimate 300
Instrument type: LC-ESI-ITFT
Ms type: MS2
Ion mode: NEGATIVE
Ionization: ESI
Collision energy: 45eV
Column name: Alltima C18
Retention time: 17.76 min
Base peak: 193.0507
Precursor m/z: 193.0507
Precursor type: [M-H]-
m/z	relative intensity
132.9324	999
