Mass spectrum: N-Methyl-D-aspartic acid; ESI-TOF; MS2; CE: 6.0000000;  [M+H]+
Name: N-Methyl-D-aspartic acid
Class: NA
Formula: C5H9NO4
Exact mass: 147.05316
SMILES: CNC(CC(O)=O)C(O)=O
InChI: InChI=1S/C5H9NO4/c1-6-3(5(9)10)2-4(7)8/h3,6H,2H2,1H3,(H,7,8)(H,9,10)
Instrument: waters xevo g2 TOF
Instrument type: ESI-TOF
Ms type: MS2
Ion mode: POSITIVE
Ionization: ESI
Collision energy: 6.0000000
Column name: Acquity CSHC18
Retention time: 0.561 min
Base peak: 148.06116
Precursor m/z: 148.06116
Precursor type: [M+H]+
m/z	relative intensity
88.0401	66
96.9619	13
102.0556	103
130.0504	22
148.061	999
149.0643	45
150.0651	6
162.0763	6
170.0432	3
247.9865	4
295.1141	3
348.024	3
495.0799	3
