Mass spectrum: 4-QUINOLINECARBOXYLATE; LC-ESI-QTOF; MS2; CE: 40;  [M-H]-
Name: 4-QUINOLINECARBOXYLATE
Class: NA
Formula: C10H7NO2
Exact mass: 173.04768
SMILES: C1=CC=C2C(=C1)C(=CC=N2)C(=O)O
InChI: InChI=1S/C10H7NO2/c12-10(13)8-5-6-11-9-4-2-1-3-7(8)9/h1-6H,(H,12,13)
Instrument: Agilent 6530Â Q-TOF LC/MS
Instrument type: LC-ESI-QTOF
Ms type: MS2
Ion mode: NEGATIVE
Ionization: ESI
Collision energy: 40
Column name: NA
Retention time: 0.200 min
Base peak: 172.03772
Precursor m/z: 172.03772
Precursor type: [M-H]-
Precursor intensity: 140
m/z	relative intensity
118.9402	160
128.0776	160
129.0464	999
