Mass spectrum: UDP; LC-ESI-QTOF; MS2; CE: 60;  [M-H]-
Name: UDP
Class: Pyrimidine ribonucleoside diphosphates
Formula: C9H14N2O12P2
Exact mass: 404.0022
SMILES: O[C@H]1[C@@H](O)[C@@H](O[C@@H]1COP(O)(=O)OP(O)(O)=O)N1C=CC(=O)NC1=O
InChI: InChI=1S/C9H14N2O12P2/c12-5-1-2-11(9(15)10-5)8-7(14)6(13)4(22-8)3-21-25(19,20)23-24(16,17)18/h1-2,4,6-8,13-14H,3H2,(H,19,20)(H,10,12,15)(H2,16,17,18)/t4-,6-,7-,8-/m1/s1
Instrument: impact II
Instrument type: LC-ESI-QTOF
Ms type: MS2
Ion mode: NEGATIVE
Ionization: ESI
Collision energy: 60
Column name: Acquity CSHC18
Retention time: 1.869 min
Base peak: 402.9944
Precursor m/z: 402.9944
Precursor type: [M-H]-
m/z	relative intensity
62.9641	4
78.9322	1
78.9589	999
78.9682	11
79.0277	1
79.1016	1
79.1084	1
79.1379	1
79.1553	1
79.177	1
79.1965	1
79.2048	1
79.2434	1
79.2549	1
79.9586	2
79.963	2
80.9637	6
96.9697	24
111.0199	19
112.0232	3
120.9695	1
150.9809	1
158.925	91
160.9287	1
