Mass spectrum: L-Aspartic acid; LC-ESI-QTOF; MS2; CE: 17.33;  [2M+3Na-4H]-
Name: L-Aspartic acid
Class: NA
Formula: C4H7NO4
Exact mass: 133.0375
SMILES: C(C(C(=O)O)N)C(=O)O
InChI: InChI=1S/C4H7NO4/c5-2(4(8)9)1-3(6)7/h2H,1,5H2,(H,6,7)(H,8,9)
Instrument: Bruker MicrOTOF-Q
Instrument type: LC-ESI-QTOF
Ms type: MS2
Ion mode: NEGATIVE
Ionization: ESI
Collision energy: 17.33
Column name: Acquity CSHC18
Retention time: NA
Base peak: 331.0136
Precursor m/z: 331.0136
Precursor type: [2M+3Na-4H]-
m/z	relative intensity
53.1514	123
60.4603	78
65.7174	106
70.5946	106
80.9586	78
82.8718	85
103.9223	92
106.8894	109
108.0146	130
120.8382	75
127.8781	151
128.5951	99
130.997	82
132.9054	102
136.0029	120
138.6962	82
140.7558	78
149.053	89
150.6492	85
154.0135	999
161.8841	106
164.249	99
174.1842	99
203.0415	353
204.6183	130
220.044	92
233.19	78
241.9929	85
242.9825	102
243.8686	68
248.0181	302
260.641	85
270.9964	106
276.001	102
289.0163	171
310.9918	123
313.0092	120
313.8734	96
329.7487	102
331.1422	243
332.004	140
337.1206	68
381.795	72
411.0878	99
418.5138	102
437.2501	75
552.9548	99
592.611	109
601.4565	130
650.5468	92
718.8868	75
787.619	85
839.3999	85
857.4434	102
903.0051	75
927.1492	72
967.9436	120
980.2846	133
994.1325	92
