Mass spectrum: CYSTEATE; LC-ESI-QTOF; MS2; CE: 40;  [M-H]-
Name: CYSTEATE
Class: NA
Formula: C3H7NO5S
Exact mass: 169.00449
SMILES: NC(CS(O)(=O)=O)C(O)=O
InChI: InChI=1S/C3H7NO5S/c4-2(3(5)6)1-10(7,8)9/h2H,1,4H2,(H,5,6)(H,7,8,9)
Instrument: Agilent 6530Â Q-TOF LC/MS
Instrument type: LC-ESI-QTOF
Ms type: MS2
Ion mode: NEGATIVE
Ionization: ESI
Collision energy: 40
Column name: NA
Retention time: 0.200 min
Base peak: 167.99656
Precursor m/z: 167.99656
Precursor type: [M-H]-
Precursor intensity: 168
m/z	relative intensity
63.966	177
71.0186	225
79.9632	486
80.9818	999
