Mass spectrum: 6-(Methylsulfinyl)hexyl isothiocyanate; LC-ESI-QTOF; MS2; CE: 23.33;  [2M+H]+
Name: 6-(Methylsulfinyl)hexyl isothiocyanate
Class: NA
Formula: C8H15NOS2
Exact mass: 205.0595
SMILES: CS(=O)CCCCCCN=C=S
InChI: InChI=1S/C8H15NOS2/c1-12(10)7-5-3-2-4-6-9-8-11/h2-7H2,1H3
Instrument: Bruker MicrOTOF-Q
Instrument type: LC-ESI-QTOF
Ms type: MS2
Ion mode: POSITIVE
Ionization: ESI
Collision energy: 23.33
Column name: Acquity CSHC18
Retention time: NA
Base peak: 411.1263
Precursor m/z: 411.1263
Precursor type: [2M+H]+
m/z	relative intensity
98.09	132
99.03	12
101.02	24
108.08	312
109.09	782
110.09	60
113.04	36
115.06	72
119.05	12
122.95	12
124.07	12
125.04	60
126.09	48
127.085	12
128.09	12
131.09	24
133.07	481
134.07	48
135.06	12
141.38	12
142.19	999
143.07	433
143.875	72
147.125	276
148.09	36
149.08	12
154.59	12
157.68	12
160.08	12
163.07	12
179.07	12
190.11	12
205.195	12
206.7179	955
208.4567	160
213.23	12
228.33	12
236.01	12
249.63	12
270.58	12
289.58	12
328.13	12
344.79	12
472.5	12
495.72	12
697.5	12
