Mass spectrum: LAUROYLCARNITINE; LC-ESI-QFT; MS2; CE: 30eV;  [M+H]+
Name: LAUROYLCARNITINE
Class: NA
Formula: C19H37NO4
Exact mass: 343.27226
SMILES: CCCCCCCCCCCC(=O)O[C@H](CC([O-])=O)C[N+](C)(C)C
InChI: InChI=1S/C19H37NO4/c1-5-6-7-8-9-10-11-12-13-14-19(23)24-17(15-18(21)22)16-20(2,3)4/h17H,5-16H2,1-4H3/t17-/m1/s1
Instrument: Q-Exactive Orbitrap, Thermo Scientfic; Ultimate 3000 HPLC, Thermo Scientfic
Instrument type: LC-ESI-QFT
Ms type: MS2
Ion mode: POSITIVE
Ionization: ESI
Collision energy: 30eV
Column name: Acquity CSHC18
Retention time: 10.817 min
Base peak: 344.2795
Precursor m/z: 344.2795
Precursor type: [M+H]+
Precursor intensity: 162
m/z	relative intensity
50.1119	6
51.2783	7
55.4967	6
57.0343	54
57.0707	124
58.0658	13
59.3427	7
61.0849	15
64.5588	8
67.055	15
71.0863	101
79.8314	10
81.0707	70
83.0863	110
85.1019	107
86.0088	7
86.0325	337
87.8359	9
89.0604	11
95.0862	243
97.1019	19
98.8841	8
99.1173	12
109.1018	195
110.1055	9
123.1172	55
144.1023	512
165.1641	51
172.235	9
183.1748	999
183.2663	9
184.1783	47
201.1855	123
236.6505	10
286.21	168
338.1016	8
340.3972	10
345.1797	9
345.2836	643
