Mass spectrum: OXOGLUTARATE; LC-ESI-QTOF; MS2; CE: 20;  [M-H]-
Name: OXOGLUTARATE
Class: NA
Formula: C5H6O5
Exact mass: 146.02152
SMILES: OC(=O)CCC(=O)C(O)=O
InChI: InChI=1S/C5H6O5/c6-3(5(9)10)1-2-4(7)8/h1-2H2,(H,7,8)(H,9,10)
Instrument: Agilent 6530Â Q-TOF LC/MS
Instrument type: LC-ESI-QTOF
Ms type: MS2
Ion mode: NEGATIVE
Ionization: ESI
Collision energy: 20
Column name: NA
Retention time: 0.200 min
Base peak: 145.01495
Precursor m/z: 145.01495
Precursor type: [M-H]-
Precursor intensity: 178
m/z	relative intensity
55.0322	130
57.0346	146
60.9899	205
64.0182	657
73.04	744
83.0085	755
101.0411	999
145.0184	130
