Mass spectrum: CREATININE; LC-ESI-QTOF; MS2; CE: 40;  [M+H]+
Name: CREATININE
Class: NA
Formula: C4H7N3O
Exact mass: 113.0589
SMILES: CN1CC(=O)NC1=N
InChI: InChI=1S/C4H7N3O/c1-7-2-3(8)6-4(7)5/h2H2,1H3,(H2,5,6,8)
Instrument: Agilent 6530Â Q-TOF LC/MS
Instrument type: LC-ESI-QTOF
Ms type: MS2
Ion mode: POSITIVE
Ionization: ESI
Collision energy: 40
Column name: NA
Retention time: 0.200 min
Base peak: 114.06795
Precursor m/z: 114.06795
Precursor type: [M+H]+
Precursor intensity: 89.5
m/z	relative intensity
41.0366	30
41.0629	4
41.7429	4
42.0226	56
42.0579	7
42.9242	3
43.0289	743
43.1015	22
43.123	8
43.2708	8
43.3647	13
43.4729	1
43.5213	6
43.7655	14
43.8711	10
43.961	1
44.011	96
44.0484	999
44.1352	10
44.1571	17
44.2024	8
44.3044	17
44.9304	10
45.8111	14
46.9565	16
46.9852	2
47.0496	6
48.5456	11
48.8416	7
52.6809	2
54.7124	8
55.7462	3
55.8839	3
56.1565	4
65.5015	16
67.0095	7
67.7521	2
69.4988	6
69.518	2
71.9344	9
72.941	27
78.5734	2
83.6119	2
88.7374	2
92.7682	13
97.2937	10
98.0199	32
98.2874	4
102.1634	2
103.0853	7
103.372	12
108.573	2
118.9422	18
