Mass spectrum: Iodotyrosine; ESI-TOF; MS2; CE: 0.6458333;  [M+H]+
Name: Iodotyrosine
Class: NA
Formula: C9H10INO3
Exact mass: 306.97054
SMILES: NC(CC1=CC=C(O)C(I)=C1)C(O)=O
InChI: InChI=1S/C9H10INO3/c10-6-3-5(1-2-8(6)12)4-7(11)9(13)14/h1-3,7,12H,4,11H2,(H,13,14)
Instrument: waters xevo g2 TOF
Instrument type: ESI-TOF
Ms type: MS2
Ion mode: POSITIVE
Ionization: ESI
Collision energy: 0.6458333
Column name: Acquity CSHC18
Retention time: 1.736 min
Base peak: 307.97854
Precursor m/z: 307.97854
Precursor type: [M+H]+
m/z	relative intensity
80.0637	2
89.0398	4
90.0473	17
91.0551	8
94.0423	369
95.0458	24
96.0465	1
102.0469	3
106.0657	1
107.0495	2
108.0576	105
109.0618	7
118.0422	164
119.0486	32
121.0298	37
122.037	38
134.0607	204
135.0686	999
136.0617	93
137.0742	5
146.0369	64
147.043	19
163.0401	52
164.0475	225
165.0506	21
232.9461	2
244.9462	156
245.9496	12
248.9413	407
249.944	32
261.9731	578
262.9761	58
263.9774	3
272.9413	75
273.9459	6
290.952	106
291.9544	10
307.9789	34
308.9817	3
