Mass spectrum: 1-stearoyl-2-hydroxy-sn-glycero-3-phosphocholine; ESI-TOF; MS2; CE: 6.0000000;  [M+H]+
Name: 1-stearoyl-2-hydroxy-sn-glycero-3-phosphocholine
Class: NA
Formula: C26H54NO7P
Exact mass: 523.36379
SMILES: [H]OC([H])(C([H])([H])OC(=O)C([H])([H])C([H])([H])C([H])([H])C([H])([H])C([H])([H])C([H])([H])C([H])([H])C([H])([H])C([H])([H])C([H])([H])C([H])([H])C([H])([H])C([H])([H])C([H])([H])C([H])([H])C([H])([H])C([H])([H])[H])C([H])([H])OP(=O)([O-])OC([H])([H])C([H])([H])[N+](C([H])([H])[H])(C([H])([H])[H])C([H])([H])[H]
InChI: InChI=1S/C26H54NO7P/c1-5-6-7-8-9-10-11-12-13-14-15-16-17-18-19-20-26(29)32-23-25(28)24-34-35(30,31)33-22-21-27(2,3)4/h25,28H,5-24H2,1-4H3
Instrument: waters xevo g2 TOF
Instrument type: ESI-TOF
Ms type: MS2
Ion mode: POSITIVE
Ionization: ESI
Collision energy: 6.0000000
Column name: Acquity CSHC18
Retention time: 7.256 min
Base peak: 524.37179
Precursor m/z: 524.37179
Precursor type: [M+H]+
m/z	relative intensity
104.108	7
148.5331	12
157.5386	3
184.074	3
240.1003	5
272.6584	7
273.1603	2
280.6442	2
281.6639	91
282.1654	28
282.667	5
283.6594	1
289.6512	6
290.133	1
312.0221	1
314.0306	3
323.2269	2
323.6405	1
459.2187	2
478.7843	1
479.2906	1
506.3601	11
507.3636	2
524.3716	999
525.3748	306
