Mass spectrum: taurine; LC-ESI-QTOF; MS2; CE: -10, -35, -60V;  [M-H]-
Name: taurine
Class: NA
Formula: C2H7NO3S
Exact mass: 125.0147
SMILES: C(CS(=O)(=O)O)N
InChI: InChI=1S/C2H7NO3S/c3-1-2-7(4,5)6/h1-3H2,(H,4,5,6)
Instrument: TripleToF 5600; Sciex
Instrument type: LC-ESI-QTOF
Ms type: MS2
Ion mode: NEGATIVE
Ionization: ESI
Collision energy: -10, -35, -60V
Column name: Acquity CSHC18
Retention time: 0.674 min
Base peak: 124.0089
Precursor m/z: 124.0089
Precursor type: [M-H]-
Precursor intensity: 113553.9
m/z	relative intensity
79.9584	999
81.9511	58
124.0064	763
