Mass spectrum: Luteolin; LC-ESI-QTOF; MS2; CE: 50eV;  [M+H]+
Name: Luteolin
Class: Flavone
Formula: C15H10O6
Exact mass: 286.0477
SMILES: C1=CC(=C(C=C1C2=CC(=O)C3=C(C=C(C=C3O2)O)O)O)O
InChI: InChI=1S/C15H10O6/c16-8-4-11(19)15-12(20)6-13(21-14(15)5-8)7-1-2-9(17)10(18)3-7/h1-6,16-19H
Instrument: TIMS-TOF Pro, Bruker Daltonik; Elute UHPLC System, Bruker Daltonik
Instrument type: LC-ESI-QTOF
Ms type: MS2
Ion mode: POSITIVE
Ionization: ESI
Collision energy: 50eV
Column name: Acquity CSHC18
Retention time: 6.702 min
Base peak: 287.0522
Precursor m/z: 287.0522
Precursor type: [M+H]+
Precursor intensity: 91940.06
m/z	relative intensity
67.0181	13
68.9977	13
77.0426	3
84.8412	4
104.1422	5
116.8266	5
125.0167	5
135.0194	8
137.0197	4
152.9504	6
153.0152	29
154.0237	7
167.0476	4
174.6164	4
185.0604	6
241.04	2
278.9676	1
287.0307	27
287.0522	999
287.5336	5
