Mass spectrum: (+)-Citronellal; LC-ESI-QTOF; MS2; CE: 15.70;  [2M+H]+
Name: (+)-Citronellal
Class: NA
Formula: C10H18O
Exact mass: 154.1358
SMILES: CC(CCC=C(C)C)CC=O
InChI: InChI=1S/C10H18O/c1-9(2)5-4-6-10(3)7-8-11/h5,8,10H,4,6-7H2,1-3H3
Instrument: Bruker MicrOTOF-Q
Instrument type: LC-ESI-QTOF
Ms type: MS2
Ion mode: POSITIVE
Ionization: ESI
Collision energy: 15.70
Column name: Acquity CSHC18
Retention time: NA
Base peak: 309.2788
Precursor m/z: 309.2788
Precursor type: [2M+H]+
m/z	relative intensity
119.0872	71
121.1052	106
123.119	154
124.118	40
125.0909	38
135.1151	292
136.1184	31
137.131	718
138.1376	64
139.1139	31
147.1173	183
149.1308	499
150.1331	81
151.1502	52
153.1271	77
161.1299	189
162.1339	39
163.1474	159
164.1492	24
165.1273	127
165.1636	68
175.1443	155
177.1659	244
181.1595	199
183.128	80
189.1629	410
190.1632	49
191.1785	199
192.1801	65
195.173	259
196.172	28
203.1782	312
204.1821	26
205.1912	71
207.1699	58
209.1864	78
217.1949	633
218.1999	154
221.1901	138
223.2055	140
224.1999	41
231.2058	68
233.2316	32
235.2079	213
254.8636	22
263.2526	23
273.2555	999
274.261	209
291.2666	936
292.2707	226
