Mass spectrum: (+)-Chelidonine; LC-ESI-QTOF; MS2; CE: 19.06;  [M+H]+
Name: (+)-Chelidonine
Class: NA
Formula: C20H19NO5
Exact mass: 353.1263
SMILES: CN1CC2=C(C=CC3=C2OCO3)C4C1C5=CC6=C(C=C5CC4O)OCO6
InChI: InChI=1S/C20H19NO5/c1-21-7-13-11(2-3-15-20(13)26-9-23-15)18-14(22)4-10-5-16-17(25-8-24-16)6-12(10)19(18)21/h2-3,5-6,14,18-19,22H,4,7-9H2,1H3
Instrument: Bruker MicrOTOF-Q
Instrument type: LC-ESI-QTOF
Ms type: MS2
Ion mode: POSITIVE
Ionization: ESI
Collision energy: 19.06
Column name: Acquity CSHC18
Retention time: NA
Base peak: 354.1336
Precursor m/z: 354.1336
Precursor type: [M+H]+
m/z	relative intensity
135.0436	33
163.0387	33
247.0754	36
248.0783	36
265.0854	41
275.0736	45
276.0736	62
277.0773	73
293.0804	122
295.0962	132
296.0991	141
305.0811	201
306.0839	202
323.0917	231
324.0948	309
336.1226	574
337.1259	623
354.1339	626
355.1365	999
