Mass spectrum: URIDINE MONOPHOSPHATE; LC-ESI-QTOF; MS2; CE: 40;  [M-H]-
Name: URIDINE MONOPHOSPHATE
Class: NA
Formula: C9H13N2O9P
Exact mass: 324.03587
SMILES: O[C@H]1[C@@H](O)[C@@H](O[C@@H]1COP(O)(O)=O)N1C=CC(=O)NC1=O
InChI: InChI=1S/C9H13N2O9P/c12-5-1-2-11(9(15)10-5)8-7(14)6(13)4(20-8)3-19-21(16,17)18/h1-2,4,6-8,13-14H,3H2,(H,10,12,15)(H2,16,17,18)/t4-,6-,7-,8-/m1/s1
Instrument: Agilent 6530Â Q-TOF LC/MS
Instrument type: LC-ESI-QTOF
Ms type: MS2
Ion mode: NEGATIVE
Ionization: ESI
Collision energy: 40
Column name: NA
Retention time: 0.200 min
Base peak: 323.02656
Precursor m/z: 323.02656
Precursor type: [M-H]-
Precursor intensity: 142
m/z	relative intensity
42.0016	113
78.9785	120
96.9812	338
111.0227	999
