Mass spectrum: 2-Pyrocatechuic acid; LC-ESI-ITFT; MS2; CE: 10;  [M-H]-
Name: 2-Pyrocatechuic acid
Class: Benzenoids; Benzene and substituted derivatives; Benzoic acids and derivatives
Formula: C7H6O4
Exact mass: 154.02661
SMILES: OC(=O)C1=C(O)C(O)=CC=C1
InChI: InChI=1S/C7H6O4/c8-5-3-1-2-4(6(5)9)7(10)11/h1-3,8-9H,(H,10,11)
Instrument: Thermo Scientific Q-Exactive Focus
Instrument type: LC-ESI-ITFT
Ms type: MS2
Ion mode: NEGATIVE
Ionization: ESI
Collision energy: 10
Column name: Acquity CSHC18
Retention time: 0.361 min
Base peak: 153.01933
Precursor m/z: 153.01933
Precursor type: [M-H]-
m/z	relative intensity
73.033	2
81.0333	3
82.4178	2
91.0177	2
92.5154	6
108.0204	21
109.0283	953
121.85	2
153.0183	999
173.713	2
