Mass spectrum: Prostaglandin E2-biotin; ESI-TOF; MS2; CE: 0.6458333;  [M+H]+
Name: Prostaglandin E2-biotin
Class: NA
Formula: C35H58N4O6S
Exact mass: 662.40771
SMILES: [H][C@]12[C@](N([H])C(N2[H])=O)([H])CS[C@@H]1CCCCC(NCCCCCN([H])C(CCC/C=C\C[C@H]3C(C[C@@H](O)[C@@H]3/C=C/[C@@H](O)CCCCC)=O)=O)=O
InChI: InChI=1S/C35H58N4O6S/c1-2-3-7-14-25(40)19-20-27-26(29(41)23-30(27)42)15-8-4-5-9-17-32(43)36-21-12-6-13-22-37-33(44)18-11-10-16-31-34-28(24-46-31)38-35(45)39-34/h4,8,19-20,25-28,30-31,34,40,42H,2-3,5-7,9-18,21-24H2,1H3,(H,36,43)(H,37,44)(H2,38,39,45)/b8-4-,20-19+/t25-,26+,27+,28-,30+,31+,34-/m0/s1
Instrument: waters xevo g2 TOF
Instrument type: ESI-TOF
Ms type: MS2
Ion mode: POSITIVE
Ionization: ESI
Collision energy: 0.6458333
Column name: Acquity CSHC18
Retention time: 3.435 min
Base peak: 663.41571
Precursor m/z: 663.41571
Precursor type: [M+H]+
m/z	relative intensity
69.0717	4
86.0966	21
123.0263	6
227.0866	48
229.0938	3
299.2001	16
307.6773	10
311.1902	29
312.1748	131
313.1867	4
315.1632	5
329.1999	191
330.2058	30
331.1982	6
342.1733	32
395.2061	7
401.3162	8
402.3043	4
493.2026	2
609.3826	24
627.3927	639
628.3946	263
629.3932	71
630.3928	19
645.4037	999
646.4068	407
647.4064	133
648.4042	20
663.4139	29
