Mass spectrum: 1-oleoyl-2-hydroxy-sn-glycero-3-phosphoethanolamine; ESI-TOF; MS2; CE: 0.6458333;  [M+H]+
Name: 1-oleoyl-2-hydroxy-sn-glycero-3-phosphoethanolamine
Class: NA
Formula: C23H46NO7P
Exact mass: 479.30119
SMILES: [H]OC([H])(C([H])([H])OC(=O)C([H])([H])C([H])([H])C([H])([H])C([H])([H])C([H])([H])C([H])([H])C([H])([H])C([H])=C([H])C([H])([H])C([H])([H])C([H])([H])C([H])([H])C([H])([H])C([H])([H])C([H])([H])C([H])([H])[H])C([H])([H])OP(=O)([O-])OC([H])([H])C([H])([H])[N+]([H])([H])[H]
InChI: InChI=1S/C23H46NO7P/c1-2-3-4-5-6-7-8-9-10-11-12-13-14-15-16-17-23(26)29-20-22(25)21-31-32(27,28)30-19-18-24/h9-10,22,25H,2-8,11-21,24H2,1H3,(H,27,28)
Instrument: waters xevo g2 TOF
Instrument type: ESI-TOF
Ms type: MS2
Ion mode: POSITIVE
Ionization: ESI
Collision energy: 0.6458333
Column name: Acquity CSHC18
Retention time: 6.603 min
Base peak: 480.30919
Precursor m/z: 480.30919
Precursor type: [M+H]+
m/z	relative intensity
62.0611	28
69.0707	13
81.0707	30
83.0864	25
93.0702	9
95.086	36
97.1022	18
109.1018	25
111.1172	11
121.0564	16
123.117	9
124.015	7
135.1176	25
136.9318	23
142.0266	12
149.1322	17
155.0107	114
163.149	7
174.9475	12
184.0729	5
192.9586	135
198.0528	19
216.0627	32
247.2438	23
265.2531	78
266.2553	9
308.2956	140
309.2976	22
321.2106	33
339.2899	999
340.2932	241
341.2947	58
401.1737	10
419.2562	43
420.2591	9
441.2374	53
457.2026	214
458.2055	42
459.2472	224
460.2502	22
461.1945	9
462.2984	223
463.3015	63
473.1761	23
475.2126	31
480.3089	425
481.312	228
