Mass spectrum: 4-Thujanol; LC-ESI-QTOF; MS2; CE: 15.00;  [M-H2O+H]+
Name: 4-Thujanol
Class: NA
Formula: C10H18O
Exact mass: 154.1358
SMILES: CC(C)C12CCC(C1C2)(C)O
InChI: InChI=1S/C10H18O/c1-7(2)10-5-4-9(3,11)8(10)6-10/h7-8,11H,4-6H2,1-3H3
Instrument: Bruker MicrOTOF-Q
Instrument type: LC-ESI-QTOF
Ms type: MS2
Ion mode: POSITIVE
Ionization: ESI
Collision energy: 15.00
Column name: Acquity CSHC18
Retention time: NA
Base peak: 137.1325
Precursor m/z: 137.1325
Precursor type: [M-H2O+H]+
m/z	relative intensity
137.1338	999
138.1473	153
