Mass spectrum: Anise alcoho; LC-ESI-QTOF; MS2; CE: 15.00;  [M-H2O+H]+
Name: Anise alcoho
Class: NA
Formula: C8H10O2
Exact mass: 138.0681
SMILES: COC1=CC=C(C=C1)CO
InChI: InChI=1S/C8H10O2/c1-10-8-4-2-7(6-9)3-5-8/h2-5,9H,6H2,1H3
Instrument: Bruker MicrOTOF-Q
Instrument type: LC-ESI-QTOF
Ms type: MS2
Ion mode: POSITIVE
Ionization: ESI
Collision energy: 15.00
Column name: Acquity CSHC18
Retention time: NA
Base peak: 121.0648
Precursor m/z: 121.0648
Precursor type: [M-H2O+H]+
m/z	relative intensity
107.0469	4
121.0014	2
121.0634	999
122.0663	82
