Mass spectrum: Furocoumarin; LC-ESI-QTOF; MS2; CE: 15.00;  [M+H]+
Name: Furocoumarin
Class: NA
Formula: C11H6O3
Exact mass: 186.0317
SMILES: C1=CC(=O)OC2=CC3=C(C=CO3)C=C21
InChI: InChI=1S/C11H6O3/c12-11-2-1-7-5-8-3-4-13-9(8)6-10(7)14-11/h1-6H
Instrument: Bruker MicrOTOF-Q
Instrument type: LC-ESI-QTOF
Ms type: MS2
Ion mode: POSITIVE
Ionization: ESI
Collision energy: 15.00
Column name: Acquity CSHC18
Retention time: NA
Base peak: 187.0390
Precursor m/z: 187.0390
Precursor type: [M+H]+
m/z	relative intensity
115.0545	84
116.0582	8
131.0498	266
132.0533	22
143.0496	143
144.0528	14
158.0353	3
159.0444	47
160.0482	5
186.9428	2
187.0398	999
187.3519	1
188.043	120
189.045	2
