Mass spectrum: Glutamine; LC-ESI-QTOF; MS2; CE: 30;  [M-H]-
Name: Glutamine
Class: NA
Formula: C5H10N2O3
Exact mass: 146.0691
SMILES: C(CC(=O)N)C(C(=O)O)N
InChI: InChI=1S/C5H10N2O3/c6-3(5(9)10)1-2-4(7)8/h3H,1-2,6H2,(H2,7,8)(H,9,10)
Instrument: impact II
Instrument type: LC-ESI-QTOF
Ms type: MS2
Ion mode: NEGATIVE
Ionization: ESI
Collision energy: 30
Column name: Acquity CSHC18
Retention time: 1.866 min
Base peak: 145.0619
Precursor m/z: 145.0619
Precursor type: [M-H]-
m/z	relative intensity
74.0252	937
84.0463	804
127.0549	999
