Mass spectrum: Phosphorylcholine; ESI-TOF; MS2; CE: 6.0000000;  [M+H]+
Name: Phosphorylcholine
Class: NA
Formula: [C5H15NO4P]+
Exact mass: 184.07332
SMILES: C[N+](C)(C)CCOP(O)(O)=O
InChI: InChI=1S/C5H14NO4P/c1-6(2,3)4-5-10-11(7,8)9/h4-5H2,1-3H3,(H-,7,8,9)/p+1
Instrument: waters xevo g2 TOF
Instrument type: ESI-TOF
Ms type: MS2
Ion mode: POSITIVE
Ionization: ESI
Collision energy: 6.0000000
Column name: Acquity CSHC18
Retention time: 0.537 min
Base peak: 185.08187
Precursor m/z: 185.08187
Precursor type: [M+H]+
m/z	relative intensity
84.9601	7
113.9641	27
125.0001	12
139.9637	4
140.9959	26
141.0338	12
141.9589	78
143.9975	6
152.5412	8
162.1121	6
167.0131	120
171.9917	3
184.0738	999
185.077	64
206.0553	10
214.9168	4
236.9394	4
236.9396	8
255.9432	7
271.9183	9
301.0006	5
315.0149	10
328.9949	9
367.1402	18
