Mass spectrum: Isomaltose; ESI-TOF; MS2; CE: 0.6458333;  [M+H]+
Name: Isomaltose
Class: NA
Formula: C12H22O11
Exact mass: 342.11621
SMILES: OCC1OC(OCC2OC(O)C(O)C(O)C2O)C(O)C(O)C1O
InChI: InChI=1S/C12H22O11/c13-1-3-5(14)8(17)10(19)12(23-3)21-2-4-6(15)7(16)9(18)11(20)22-4/h3-20H,1-2H2
Instrument: waters xevo g2 TOF
Instrument type: ESI-TOF
Ms type: MS2
Ion mode: POSITIVE
Ionization: ESI
Collision energy: 0.6458333
Column name: Acquity CSHC18
Retention time: 0.558 min
Base peak: 343.12421
Precursor m/z: 343.12421
Precursor type: [M+H]+
m/z	relative intensity
72.9376	141
85.0289	471
97.0285	208
99.9689	174
111.9689	4
127.0391	189
138.99	4
138.9903	4
145.0498	266
163.0604	97
173.9607	71
174.9688	85
178.1222	4
185.9627	42
186.9693	74
198.9686	135
233.9831	50
277.0008	133
325.1135	4
326.1192	4
337.0219	149
360.152	23
361.1534	4
362.0951	4
365.106	999
366.1081	101
396.0361	4
397.0397	36
456.0565	176
487.1655	4
707.2206	4
738.1529	4
739.1543	4
