Mass spectrum: Pinocembrin; LC-ESI-QTOF; MS2; CE: 50eV;  [M-H]-
Name: Pinocembrin
Class: Flavanone
Formula: C15H12O4
Exact mass: 256.0736
SMILES: C1C(OC2=CC(=CC(=C2C1=O)O)O)C3=CC=CC=C3
InChI: InChI=1S/C15H12O4/c16-10-6-11(17)15-12(18)8-13(19-14(15)7-10)9-4-2-1-3-5-9/h1-7,13,16-17H,8H2
Instrument: TIMS-TOF Pro, Bruker Daltonik; Elute UHPLC System, Bruker Daltonik
Instrument type: LC-ESI-QTOF
Ms type: MS2
Ion mode: NEGATIVE
Ionization: ESI
Collision energy: 50eV
Column name: Acquity CSHC18
Retention time: 8.979 min
Base peak: 255.0631
Precursor m/z: 255.0631
Precursor type: [M-H]-
Precursor intensity: 60004.67
m/z	relative intensity
22.7557	2
27.0789	2
28.3245	2
36.8908	3
39.0239	3
41.0025	72
42.0061	2
52.8112	2
57.0334	6
63.0224	163
63.283	2
64.0265	16
65.0016	352
65.4269	3
66.0059	18
68.9969	43
69.2	3
71.8001	4
78.0412	3
80.026	18
81.8544	10
83.0126	156
83.3577	2
84.0169	6
89.0011	3
91.9888	2
94.0035	6
95.0121	12
96.0229	5
101.0387	28
103.0536	22
104.0564	2
107.0108	27
108.0195	48
108.6332	3
115.0381	12
117.0312	7
119.013	3
121.9482	5
123.0074	7
124.8275	4
126.2319	7
128.6276	5
130.0406	11
130.9032	6
133.0661	4
134.9955	3
136.0141	14
139.054	5
141.0693	10
142.0768	3
143.0482	12
145.0636	64
146.0662	9
151.0008	101
152.0022	6
153.4714	2
154.7829	3
157.0648	5
161.8813	5
164.0087	16
169.0608	5
170.0648	3
171.0409	28
172.0445	6
173.0469	2
178.0165	3
185.0608	12
187.0718	33
188.0781	3
193.0603	3
211.0716	38
212.0738	9
213.0508	129
213.5689	2
214.0577	12
227.0713	7
228.0703	2
238.0543	3
254.9083	3
255.0392	999
255.3295	4
255.5254	11
