Mass spectrum: C16 Dihydroceramide (d18:0/16:0); ESI-TOF; MS2; CE: 6.0000000;  [M+H]+
Name: C16 Dihydroceramide (d18:0/16:0)
Class: NA
Formula: C34H69NO3
Exact mass: 539.52775
SMILES: [H]OC([H])([H])C([H])(N([H])C(=O)C([H])([H])C([H])([H])C([H])([H])C([H])([H])C([H])([H])C([H])([H])C([H])([H])C([H])([H])C([H])([H])C([H])([H])C([H])([H])C([H])([H])C([H])([H])C([H])([H])C([H])([H])[H])C([H])(O[H])C([H])([H])C([H])([H])C([H])([H])C([H])([H])C([H])([H])C([H])([H])C([H])([H])C([H])([H])C([H])([H])C([H])([H])C([H])([H])C([H])([H])C([H])([H])C([H])([H])C([H])([H])[H]
InChI: InChI=1S/C34H69NO3/c1-3-5-7-9-11-13-15-17-19-21-23-25-27-29-33(37)32(31-36)35-34(38)30-28-26-24-22-20-18-16-14-12-10-8-6-4-2/h32-33,36-37H,3-31H2,1-2H3,(H,35,38)
Instrument: waters xevo g2 TOF
Instrument type: ESI-TOF
Ms type: MS2
Ion mode: POSITIVE
Ionization: ESI
Collision energy: 6.0000000
Column name: Acquity CSHC18
Retention time: 10.950 min
Base peak: 540.53575
Precursor m/z: 540.53575
Precursor type: [M+H]+
m/z	relative intensity
125.9859	4
289.7452	78
290.2468	10
310.2569	4
522.5246	14
523.5277	10
540.5355	999
541.5384	398
