Mass spectrum: Norvaline; LC-ESI-QTOF; MS2; CE: 100;  [M+H]+
Name: Norvaline
Class: NA
Formula: C5H11NO2
Exact mass: 117.07898
SMILES: CCCC(C(=O)O)N
InChI: InChI=1S/C5H11NO2/c1-2-3-4(6)5(7)8/h4H,2-3,6H2,1H3,(H,7,8)
Instrument: impact II
Instrument type: LC-ESI-QTOF
Ms type: MS2
Ion mode: POSITIVE
Ionization: ESI
Collision energy: 100
Column name: Acquity CSHC18
Retention time: 1.794 min
Base peak: 118.08610
Precursor m/z: 118.08610
Precursor type: [M+H]+
m/z	relative intensity
44.9975	145
50.0155	180
53.0027	694
53.014	999
53.9983	250
54.0097	135
54.0169	57
55.0188	150
