Mass spectrum: Agmatine; ESI-TOF; MS2; CE: 0.6458333;  [M+H]+
Name: Agmatine
Class: NA
Formula: C5H14N4
Exact mass: 130.12185
SMILES: NCCCCNC(N)=N
InChI: InChI=1S/C5H14N4/c6-3-1-2-4-9-5(7)8/h1-4,6H2,(H4,7,8,9)
Instrument: waters xevo g2 TOF
Instrument type: ESI-TOF
Ms type: MS2
Ion mode: POSITIVE
Ionization: ESI
Collision energy: 0.6458333
Column name: Acquity CSHC18
Retention time: 0.456 min
Base peak: 131.12985
Precursor m/z: 131.12985
Precursor type: [M+H]+
m/z	relative intensity
60.0566	36
72.0816	999
73.0851	37
80.05	10
97.0194	148
114.1032	895
115.1057	60
127.9637	11
131.1297	385
145.026	24
147.0226	10
150.9164	6
152.0495	11
166.0073	39
167.0135	40
168.0217	177
169.0177	67
170.0136	29
182.0272	38
183.0518	42
184.0416	256
185.06	816
187.0496	152
188.0493	11
189.0451	56
193.0503	3
203.1337	18
215.082	36
231.0421	51
244.224	2
256.1225	34
261.2496	10
273.1495	20
284.9742	6
310.1708	18
311.1686	7
314.1638	54
315.1702	71
316.1719	9
317.1716	21
361.1772	5
367.0728	8
368.0843	18
386.0985	3
