Mass spectrum: Caffeic acid; LC-ESI-ITFT; MS2; CE: 35;  [M-H]-
Name: Caffeic acid
Class: Phenolic acids
Formula: C9H8O4
Exact mass: 180.0423
SMILES: C1=CC(=C(C=C1C(=C(C(=O)O)[H])[H])O)O
InChI: InChI=1S/C9H8O4/c10-7-3-1-6(5-8(7)11)2-4-9(12)13/h1-5,10-11H,(H,12,13)
Instrument: LTQ-Orbitrap Elite, Thermo Scientific Ultimate 3000 ultra-high-pressure liquid chromatography, Thermo Scientific
Instrument type: LC-ESI-ITFT
Ms type: MS2
Ion mode: NEGATIVE
Ionization: ESI
Collision energy: 35
Column name: Acquity CSHC18
Retention time: 5.350 min
Base peak: 179.0348
Precursor m/z: 179.0348
Precursor type: [M-H]-
Precursor intensity: 11830600
m/z	relative intensity
179.0305	999
