Mass spectrum: Liothyronine; ESI-TOF; MS2; CE: 0.6458333;  [M+H]+
Name: Liothyronine
Class: NA
Formula: C15H12I3NO4
Exact mass: 650.79005
SMILES: NC(CC1=CC(I)=C(OC2=CC=C(O)C(I)=C2)C(I)=C1)C(O)=O
InChI: InChI=1S/C15H12I3NO4/c16-9-6-8(1-2-13(9)20)23-14-10(17)3-7(4-11(14)18)5-12(19)15(21)22/h1-4,6,12,20H,5,19H2,(H,21,22)
Instrument: waters xevo g2 TOF
Instrument type: ESI-TOF
Ms type: MS2
Ion mode: POSITIVE
Ionization: ESI
Collision energy: 0.6458333
Column name: Acquity CSHC18
Retention time: 3.225 min
Base peak: 651.79805
Precursor m/z: 651.79805
Precursor type: [M+H]+
m/z	relative intensity
98.9621	4
111.0451	17
121.0474	3
127.1121	4
149.0244	7
150.0283	2
155.071	174
156.0745	16
193.0497	132
194.0529	14
195.0567	1
198.0684	2
210.0687	3
219.0659	4
225.1064	18
226.0649	2
230.9965	1
232.9464	1
237.0766	87
238.08	11
241.0507	1
243.1011	1
246.0656	1
254.0584	22
255.0619	4
281.1021	54
282.1068	6
285.0759	1
286.9203	5
287.981	1
297.0388	4
303.0887	1
335.9636	1
338.9517	1
341.066	28
342.0686	5
347.112	2
351.9825	3
352.9699	3
358.8413	2
365.1174	16
366.1243	2
380.9619	8
385.0922	34
386.0953	7
409.1497	66
410.1538	14
414.8328	2
425.1772	16
426.1802	3
429.1179	42
430.1217	9
431.1323	24
432.1348	5
437.8567	1
450.8673	11
451.8742	5
453.1757	231
454.1791	61
455.188	25
459.1841	5
460.1881	1
462.87	6
465.8553	15
466.8565	1
473.1444	81
474.1476	22
475.1578	717
476.161	188
477.1633	37
478.1682	4
478.8871	95
479.8892	16
491.1308	8
496.1301	33
507.1845	4
508.0298	95
508.9864	16
537.1281	5
543.2383	1
553.1056	1
554.1174	3
576.7657	2
592.7521	47
593.7634	6
605.792	999
606.7942	163
607.799	16
634.77	41
635.7712	6
651.7969	212
652.7994	38
