Mass spectrum: Alpha-Solanine; LC-ESI-QTOF; MS2; CE: 31.21;  [M-C12H20O9+H]+
Name: Alpha-Solanine
Class: NA
Formula: C45H73NO15
Exact mass: 867.4980
SMILES: CC1CCC2C(C3C(N2C1)CC4C3(CCC5C4CC=C6C5(CCC(C6)OC7C(C(C(C(O7)CO)O)OC8C(C(C(C(O8)CO)O)O)O)OC9C(C(C(C(O9)C)O)O)O)C)C)C
InChI: InChI=1S/C45H73NO15/c1-19-6-9-27-20(2)31-28(46(27)16-19)15-26-24-8-7-22-14-23(10-12-44(22,4)25(24)11-13-45(26,31)5)57-43-40(61-41-37(54)35(52)32(49)21(3)56-41)39(34(51)30(18-48)59-43)60-42-38(55)36(53)33(50)29(17-47)58-42/h7,19-21,23-43,47-55H,6,8-18H2,1-5H3
Instrument: Bruker MicrOTOF-Q
Instrument type: LC-ESI-QTOF
Ms type: MS2
Ion mode: POSITIVE
Ionization: ESI
Collision energy: 31.21
Column name: Acquity CSHC18
Retention time: NA
Base peak: 560.3946
Precursor m/z: 560.3946
Precursor type: [M-C12H20O9+H]+
m/z	relative intensity
560.3924	67
561.3955	341
562.3993	999
