Mass spectrum: N-ACETYLSERINE; LC-ESI-QTOF; MS2; CE: 20;  [M-H]-
Name: N-ACETYLSERINE
Class: NA
Formula: C5H9NO4
Exact mass: 147.05316
SMILES: CC(=O)N[C@@H](CO)C(O)=O
InChI: InChI=1S/C5H9NO4/c1-3(8)6-4(2-7)5(9)10/h4,7H,2H2,1H3,(H,6,8)(H,9,10)/t4-/m0/s1
Instrument: Agilent 6530Â Q-TOF LC/MS
Instrument type: LC-ESI-QTOF
Ms type: MS2
Ion mode: NEGATIVE
Ionization: ESI
Collision energy: 20
Column name: NA
Retention time: 0.200 min
Base peak: 146.04768
Precursor m/z: 146.04768
Precursor type: [M-H]-
Precursor intensity: 143
m/z	relative intensity
40.0213	114
41.0141	145
42.0247	178
57.0452	184
58.0325	194
70.0277	478
72.0454	478
74.0401	480
84.0559	519
98.0365	826
104.0333	999
