Mass spectrum: Epitestosterone; LC-ESI-QTOF; MS2; CE: 10;  [M+H]+
Name: Epitestosterone
Class: NA
Formula: C19H28O2
Exact mass: 288.2089
SMILES: C[C@]12CC[C@H]3[C@H]([C@@H]1CC[C@H]2O)CCC4=CC(=O)CC[C@]34C
InChI: InChI=1S/C19H28O2/c1-18-9-7-13(20)11-12(18)3-4-14-15-5-6-17(21)19(15,2)10-8-16(14)18/h11,14-17,21H,3-10H2,1-2H3/t14-,15-,16-,17+,18-,19-/m0/s1
Instrument: Agilent 6560Â Ion Mobility Q-TOF LC/MS
Instrument type: LC-ESI-QTOF
Ms type: MS2
Ion mode: POSITIVE
Ionization: ESI
Collision energy: 10
Column name: Acquity CSHC18
Retention time: 0.200 min
Base peak: 289.2188
Precursor m/z: 289.2188
Precursor type: [M+H]+
Precursor intensity: 12.5
m/z	relative intensity
143.0813	392
173.1268	331
173.1314	325
289.2071	322
289.213	999
289.219	606
289.2249	365
