Mass spectrum: Urocanic acid; ESI-TOF; MS2; CE: 6.0000000;  [M+H]+
Name: Urocanic acid
Class: NA
Formula: C6H6N2O2
Exact mass: 138.04293
SMILES: OC(=O)C=CC1=CNC=N1
InChI: InChI=1S/C6H6N2O2/c9-6(10)2-1-5-3-7-4-8-5/h1-4H,(H,7,8)(H,9,10)
Instrument: waters xevo g2 TOF
Instrument type: ESI-TOF
Ms type: MS2
Ion mode: POSITIVE
Ionization: ESI
Collision energy: 6.0000000
Column name: Acquity CSHC18
Retention time: 0.563 min
Base peak: 139.05093
Precursor m/z: 139.05093
Precursor type: [M+H]+
m/z	relative intensity
95.0607	1
96.9617	7
96.9618	5
118.0876	1
121.0403	251
122.043	24
135.9934	4
139.0508	999
140.0535	86
141.0563	7
142.9925	4
158.0034	4
158.0037	6
178.1239	1
