Mass spectrum: Methionine; LC-ESI-QTOF; MS2; CE: 15 / 50;  [M-H]-
Name: Methionine
Class: NA
Formula: C5H11NO2S
Exact mass: 149.0510
SMILES: CSCCC(C(=O)O)N
InChI: InChI=1S/C5H11NO2S/c1-9-3-2-4(6)5(7)8/h4H,2-3,6H2,1H3,(H,7,8)
Instrument: impact II
Instrument type: LC-ESI-QTOF
Ms type: MS2
Ion mode: NEGATIVE
Ionization: ESI
Collision energy: 15 / 50
Column name: Acquity CSHC18
Retention time: 0.665 min
Base peak: 148.0438
Precursor m/z: 148.0438
Precursor type: [M-H]-
m/z	relative intensity
78.9596	999
100.0405	153
148.0434	111
149.0012	583
