Mass spectrum: Kinetin; LC-ESI-QTOF; MS2; CE: 35.00;  [M+H]+
Name: Kinetin
Class: NA
Formula: C10H9N5O
Exact mass: 215.0807
SMILES: C1=COC(=C1)CNC2=NC=NC3=C2NC=N3
InChI: InChI=1S/C10H9N5O/c1-2-7(16-3-1)4-11-9-8-10(13-5-12-8)15-6-14-9/h1-3,5-6H,4H2,(H2,11,12,13,14,15)
Instrument: Bruker MicrOTOF-Q
Instrument type: LC-ESI-QTOF
Ms type: MS2
Ion mode: POSITIVE
Ionization: ESI
Collision energy: 35.00
Column name: Acquity CSHC18
Retention time: NA
Base peak: 216.0884
Precursor m/z: 216.0884
Precursor type: [M+H]+
m/z	relative intensity
117.0476	31
118.0439	45
119.0344	999
120.0426	105
121.0474	219
135.0599	41
135.0611	49
136.0616	386
137.0566	74
144.0489	34
145.0481	102
145.0504	102
146.064	45
148.0626	511
149.0607	40
157.0593	42
160.0572	39
160.0601	38
161.079	84
162.0803	32
170.0366	40
171.067	69
172.0633	321
173.0708	207
174.073	50
186.0764	44
188.0976	68
197.0694	31
