Mass spectrum: isorhamnetin 3-O-glucoside; LC-ESI-ITFT; MS2; CE: 0.3;  [M-H]-
Name: isorhamnetin 3-O-glucoside
Class: flavonols
Formula: C22H22O12
Exact mass: 478.1111
SMILES: COC1=C(C=CC(=C1)C2=C(C(=O)C3=C(C=C(C=C3O2)O)O)OC4C(C(C(C(O4)CO)O)O)O)O
InChI: InChI=1S/C22H22O12/c1-31-12-4-8(2-3-10(12)25)20-21(17(28)15-11(26)5-9(24)6-13(15)32-20)34-22-19(30)18(29)16(27)14(7-23)33-22/h2-6,14,16,18-19,22-27,29-30H,7H2,1H3
Instrument: LTQ-Orbitrap XL hybrid mass spectrometer (Thermo Scientific)
Instrument type: LC-ESI-ITFT
Ms type: MS2
Ion mode: NEGATIVE
Ionization: ESI
Collision energy: 0.3
Column name: Acquity CSHC18
Retention time: 7.601 min
Base peak: 477.1033
Precursor m/z: 477.1033
Precursor type: [M-H]-
Precursor intensity: 21210720
m/z	relative intensity
122.9904	1
127.0633	2
129.4548	2
130.024	2
151.004	20
153.0197	3
163.6062	1
167.7687	3
168.7179	1
174.8274	2
176.0081	1
178.9988	7
179.1995	1
190.0273	2
193.0146	2
194.4919	1
194.5059	2
194.5155	2
194.5326	2
196.1666	8
196.2464	3
201.0559	3
204.0428	11
205.0507	6
207.5167	1
243.0299	26
244.0334	1
245.0454	3
254.0591	2
257.0453	9
258.3039	1
270.0531	5
271.0246	68
271.061	4
272.0278	5
273.0402	21
285.0402	84
285.0764	15
286.0482	31
287.0501	2
287.0564	4
287.2344	4
287.2445	10
287.2555	6
289.0711	5
298.0479	7
299.0193	38
299.0558	20
300.0199	1
300.0274	28
301.0308	3
301.0714	2
310.8384	2
311.056	2
311.6351	4
312.0332	2
312.4344	4
312.4572	3
312.7558	1
313.0714	9
313.998	3
314.0113	7
314.0234	6
314.0428	999
314.0633	5
314.08	3
314.0926	3
314.1034	3
314.5747	1
315.0491	392
315.338	2
315.6408	3
315.6637	5
316.0536	28
316.4781	4
323.8168	3
327.0502	4
329.0659	36
330.0691	3
334.7008	2
339.0504	3
342.0372	10
351.5534	2
357.061	214
358.0643	23
369.0619	2
384.1085	1
387.0715	19
388.0744	2
409.1126	2
449.1084	16
455.5667	4
462.08	8
