Mass spectrum: CMP; LC-ESI-QTOF; MS2; CE: 100;  [M+H]+
Name: CMP
Class: NA
Formula: C9H14N3O8P
Exact mass: 323.05185
SMILES: C1=CN(C(=O)N=C1N)C2C(C(C(O2)COP(=O)(O)O)O)O
InChI: InChI=1S/C9H14N3O8P/c10-5-1-2-12(9(15)11-5)8-7(14)6(13)4(20-8)3-19-21(16,17)18/h1-2,4,6-8,13-14H,3H2,(H2,10,11,15)(H2,16,17,18)
Instrument: impact II
Instrument type: LC-ESI-QTOF
Ms type: MS2
Ion mode: POSITIVE
Ionization: ESI
Collision energy: 100
Column name: Acquity CSHC18
Retention time: 1.790 min
Base peak: 324.05920
Precursor m/z: 324.05920
Precursor type: [M+H]+
m/z	relative intensity
52.0189	833
67.0299	372
68.0138	272
69.0455	208
94.0403	148
95.0244	999
112.0508	184
