Mass spectrum: Wogonin; LC-ESI-QTOF; MS2; CE: 50eV;  [M-H]-
Name: Wogonin
Class: Flavone
Formula: C16H12O5
Exact mass: 284.0685
SMILES: COC1=C(C=C(C2=C1OC(=CC2=O)C3=CC=CC=C3)O)O
InChI: InChI=1S/C16H12O5/c1-20-15-12(19)7-10(17)14-11(18)8-13(21-16(14)15)9-5-3-2-4-6-9/h2-8,17,19H,1H3
Instrument: TIMS-TOF Pro, Bruker Daltonik; Elute UHPLC System, Bruker Daltonik
Instrument type: LC-ESI-QTOF
Ms type: MS2
Ion mode: NEGATIVE
Ionization: ESI
Collision energy: 50eV
Column name: Acquity CSHC18
Retention time: 8.797 min
Base peak: 283.0578
Precursor m/z: 283.0578
Precursor type: [M-H]-
Precursor intensity: 143595.3
m/z	relative intensity
34.0116	1
41.004	1
49.0076	2
50.4654	1
63.0242	3
64.7304	1
65.0022	17
66.0103	17
67.0172	3
68.9975	9
70.007	1
79.0184	2
82.0049	43
83.0118	1
91.0167	1
92.2119	1
92.9979	1
94.0057	2
95.0128	20
99.6102	1
103.1327	1
104.9969	1
107.0115	7
109.999	94
111.0034	6
115.0548	1
119.012	11
120.1465	1
120.9931	2
121.9994	1
127.0524	1
134.0801	1
135.0074	24
136.3352	1
137.0053	4
137.9935	4
139.055	14
140.0571	3
142.0402	1
143.0473	3
148.9858	3
153.0314	1
155.9948	1
157.8079	1
163.0018	50
164.0058	3
165.9907	7
167.0253	3
169.0272	1
170.7679	1
172.054	1
184.0511	2
188.1249	1
196.0505	3
198.0314	4
208.5745	1
211.0388	4
225.0484	1
239.0302	1
240.0405	4
240.6345	1
267.0274	3
267.9712	1
268.0358	999
268.1804	1
268.447	1
268.7379	1
268.9012	1
269.0383	118
269.4212	1
270.0401	6
283.0578	60
283.3736	1
