Mass spectrum: DEOXYCYTIDINE MONOPHOSPHATE; LC-ESI-QFT; MS2; CE: 30eV;  [M+H]+
Name: DEOXYCYTIDINE MONOPHOSPHATE
Class: NA
Formula: C9H14N3O7P
Exact mass: 307.05694
SMILES: NC1=NC(=O)N(C=C1)[C@H]1C[C@H](O)[C@@H](COP(O)(O)=O)O1
InChI: InChI=1S/C9H14N3O7P/c10-7-1-2-12(9(14)11-7)8-3-5(13)6(19-8)4-18-20(15,16)17/h1-2,5-6,8,13H,3-4H2,(H2,10,11,14)(H2,15,16,17)/t5-,6+,8+/m0/s1
Instrument: Q-Exactive Orbitrap, Thermo Scientfic; Ultimate 3000 HPLC, Thermo Scientfic
Instrument type: LC-ESI-QFT
Ms type: MS2
Ion mode: POSITIVE
Ionization: ESI
Collision energy: 30eV
Column name: Acquity CSHC18
Retention time: 0.611 min
Base peak: 308.0642
Precursor m/z: 308.0642
Precursor type: [M+H]+
Precursor intensity: 133
m/z	relative intensity
51.4094	2
51.8067	2
52.1905	2
55.514	2
57.8353	2
62.9116	2
63.74	2
63.9127	2
76.8234	2
77.6461	2
78.8052	2
81.0342	72
83.6604	2
91.0978	2
95.0245	3
112.0511	999
113.0545	12
132.9392	2
138.0853	2
154.1483	2
155.8543	3
191.2004	3
308.9008	6
309.042	2
