Mass spectrum: Orotic acid; LC-ESI-ITFT; MS2; CE: 60;  [M-H]-
Name: Orotic acid
Class: Organoheterocyclic compounds; Diazines; Pyrimidines and pyrimidine derivatives
Formula: C5H4N2O4
Exact mass: 156.01711
SMILES: OC(=O)C1=CC(=O)NC(=O)N1
InChI: InChI=1S/C5H4N2O4/c8-3-1-2(4(9)10)6-5(11)7-3/h1H,(H,9,10)(H2,6,7,8,11)
Instrument: Thermo Scientific Q-Exactive Focus
Instrument type: LC-ESI-ITFT
Ms type: MS2
Ion mode: NEGATIVE
Ionization: ESI
Collision energy: 60
Column name: Acquity CSHC18
Retention time: 1.766 min
Base peak: 155.00983
Precursor m/z: 155.00983
Precursor type: [M-H]-
m/z	relative intensity
65.9973	999
77.6017	560
90.072	685
101.8005	652
124.1787	579
129.5192	579
134.5515	570
138.7046	623
156.3598	616
161.4561	590
