Mass spectrum: Phenylpyruvic acid; LC-ESI-ITFT; MS2; CE: 100;  [M-H]-
Name: Phenylpyruvic acid
Class: Benzenoids; Benzene and substituted derivatives; Phenylpyruvic acid derivatives
Formula: C9H8O3
Exact mass: 164.04734
SMILES: OC(=O)C(=O)CC1=CC=CC=C1
InChI: InChI=1S/C9H8O3/c10-8(9(11)12)6-7-4-2-1-3-5-7/h1-5H,6H2,(H,11,12)
Instrument: Thermo Scientific Q-Exactive Focus
Instrument type: LC-ESI-ITFT
Ms type: MS2
Ion mode: NEGATIVE
Ionization: ESI
Collision energy: 100
Column name: Acquity CSHC18
Retention time: 2.583 min
Base peak: 163.04007
Precursor m/z: 163.04007
Precursor type: [M-H]-
m/z	relative intensity
83.6482	898
98.1035	877
112.5104	856
118.8377	862
121.0641	846
123.818	999
131.034	840
138.9305	854
145.3278	918
171.5948	950
