Mass spectrum: Naringin; LC-ESI-QTOF; MS2; CE: 15.00;  [M-C12H20O9+H]+
Name: Naringin
Class: NA
Formula: C27H32O14
Exact mass: 580.1792
SMILES: CC1C(C(C(C(O1)OC2C(C(C(OC2OC3=CC(=C4C(=O)CC(OC4=C3)C5=CC=C(C=C5)O)O)CO)O)O)O)O)O
InChI: InChI=1S/C27H32O14/c1-10-20(32)22(34)24(36)26(37-10)41-25-23(35)21(33)18(9-28)40-27(25)38-13-6-14(30)19-15(31)8-16(39-17(19)7-13)11-2-4-12(29)5-3-11/h2-7,10,16,18,20-30,32-36H,8-9H2,1H3
Instrument: Bruker MicrOTOF-Q
Instrument type: LC-ESI-QTOF
Ms type: MS2
Ion mode: POSITIVE
Ionization: ESI
Collision energy: 15.00
Column name: Acquity CSHC18
Retention time: NA
Base peak: 273.0757
Precursor m/z: 273.0757
Precursor type: [M-C12H20O9+H]+
m/z	relative intensity
147.0448	21
153.0189	39
154.0211	140
231.0666	209
273.0779	698
274.0805	999
