Mass spectrum: L-Asparagine; LC-ESI-ITFT; MS2; CE: 60;  [M-H]-
Name: L-Asparagine
Class: Organic acids and derivatives; Carboxylic acids and derivatives; Amino acids, peptides, and analogues
Formula: C4H8N2O3
Exact mass: 132.05349
SMILES: N[C@@H](CC(N)=O)C(O)=O
InChI: InChI=1S/C4H8N2O3/c5-2(4(8)9)1-3(6)7/h2H,1,5H2,(H2,6,7)(H,8,9)/t2-/m0/s1
Instrument: Thermo Scientific Q-Exactive Focus
Instrument type: LC-ESI-ITFT
Ms type: MS2
Ion mode: NEGATIVE
Ionization: ESI
Collision energy: 60
Column name: Acquity CSHC18
Retention time: 1.763 min
Base peak: 131.04622
Precursor m/z: 131.04622
Precursor type: [M-H]-
m/z	relative intensity
51.4486	719
55.1353	700
59.2969	735
67.2358	724
73.1474	769
86.5629	751
90.9085	999
121.1928	840
124.8291	730
129.9976	786
