Mass spectrum: 1-lignoceroyl-2-hydroxy-sn-glycero-3-phosphocholine; ESI-TOF; MS2; CE: 6.0000000;  [M+H]+
Name: 1-lignoceroyl-2-hydroxy-sn-glycero-3-phosphocholine
Class: NA
Formula: C32H66NO7P
Exact mass: 607.45769
SMILES: [H]OC([H])(C([H])([H])OC(=O)C([H])([H])C([H])([H])C([H])([H])C([H])([H])C([H])([H])C([H])([H])C([H])([H])C([H])([H])C([H])([H])C([H])([H])C([H])([H])C([H])([H])C([H])([H])C([H])([H])C([H])([H])C([H])([H])C([H])([H])C([H])([H])C([H])([H])C([H])([H])C([H])([H])C([H])([H])C([H])([H])[H])C([H])([H])OP(=O)([O-])OC([H])([H])C([H])([H])[N+](C([H])([H])[H])(C([H])([H])[H])C([H])([H])[H]
InChI: InChI=1S/C32H66NO7P/c1-5-6-7-8-9-10-11-12-13-14-15-16-17-18-19-20-21-22-23-24-25-26-32(35)38-29-31(34)30-40-41(36,37)39-28-27-33(2,3)4/h31,34H,5-30H2,1-4H3
Instrument: waters xevo g2 TOF
Instrument type: ESI-TOF
Ms type: MS2
Ion mode: POSITIVE
Ionization: ESI
Collision energy: 6.0000000
Column name: Acquity CSHC18
Retention time: 9.713 min
Base peak: 608.46569
Precursor m/z: 608.46569
Precursor type: [M+H]+
m/z	relative intensity
104.1084	28
148.5335	8
157.5383	2
184.0744	3
214.9206	3
240.101	20
314.7053	19
315.2078	4
322.6914	6
323.7113	492
324.2124	170
324.7141	32
325.7082	10
331.6976	43
332.1991	10
365.6896	8
366.1871	2
373.6715	4
389.1825	3
407.3199	9
408.3244	3
431.279	7
431.952	2
543.3127	2
590.4548	5
595.3648	1
608.4652	999
609.4687	367
