Mass spectrum: ADENOSINE DIPHOSPHATE RIBOSE; LC-ESI-QTOF; MS2; CE: 20;  [M+H]+
Name: ADENOSINE DIPHOSPHATE RIBOSE
Class: NA
Formula: C15H23N5O14P2
Exact mass: 559.07167
SMILES: NC1=C2N=CN(C3OC(COP(O)(=O)OP(O)(=O)OCC4OC(O)C(O)C4O)C(O)C3O)C2=NC=N1
InChI: InChI=1S/C15H23N5O14P2/c16-12-7-13(18-3-17-12)20(4-19-7)14-10(23)8(21)5(32-14)1-30-35(26,27)34-36(28,29)31-2-6-9(22)11(24)15(25)33-6/h3-6,8-11,14-15,21-25H,1-2H2,(H,26,27)(H,28,29)(H2,16,17,18)
Instrument: Agilent 6530Â Q-TOF LC/MS
Instrument type: LC-ESI-QTOF
Ms type: MS2
Ion mode: POSITIVE
Ionization: ESI
Collision energy: 20
Column name: NA
Retention time: 0.200 min
Base peak: 560.08249
Precursor m/z: 560.08249
Precursor type: [M+H]+
Precursor intensity: 191.5
m/z	relative intensity
97.0137	53
97.0193	83
97.025	85
97.0306	70
97.0362	54
97.0419	41
97.0475	33
97.0532	26
115.068	30
115.0741	28
115.0803	21
136.0357	40
136.0424	367
136.0491	830
136.0558	999
136.0625	892
136.0692	706
136.0759	538
136.0825	414
136.0892	324
136.0959	250
136.1026	191
136.1093	141
136.116	99
136.1226	72
136.1293	57
136.136	45
136.1427	34
136.1494	25
136.1561	21
136.2497	20
136.2564	22
136.2631	21
137.4229	20
232.072	20
250.0702	33
250.0793	54
250.0884	55
250.0974	45
250.1065	36
250.1156	26
250.1246	20
348.0331	90
348.0438	204
348.0545	270
348.0652	274
348.0759	230
348.0866	172
348.0973	132
348.108	98
348.1187	73
348.1294	58
348.1401	42
348.1508	29
348.1614	22
427.9881	20
428	44
428.0118	78
428.0237	97
428.0356	96
428.0474	77
428.0593	54
428.0711	39
428.083	30
428.0948	25
458.3506	20
560.0659	20
