Mass spectrum: Ginkgolide A; LC-ESI-QFT; MS2; CE: 15,30,45 (NCE);  [M+ACN+H]+
Name: Ginkgolide A
Class: NA
Formula: C20H24O9
Exact mass: 408.1420
SMILES: CC1C(=O)OC2CC34C5CC(C(C)(C)C)C33C(O)C(=O)OC3OC4(C(=O)O5)C12O
InChI: InChI=1S/C20H24O9/c1-7-12(22)26-10-6-17-9-5-8(16(2,3)4)18(17)11(21)13(23)28-15(18)29-20(17,14(24)27-9)19(7,10)25/h7-11,15,21,25H,5-6H2,1-4H3
Instrument: QE Focus, Thermo Scientfic; UPLC I-Class, Waters
Instrument type: LC-ESI-QFT
Ms type: MS2
Ion mode: POSITIVE
Ionization: ESI
Collision energy: 15,30,45 (NCE)
Column name: Acquity CSHC18
Retention time: 2.071 min
Base peak: 450.1761
Precursor m/z: 450.1761
Precursor type: [M+ACN+H]+
Precursor intensity: 3450184
m/z	relative intensity
69.0523	92
83.0497	107
104.5012	116
121.0832	116
145.0828	138
147.0804	140
157.083	151
159.0988	154
161.0778	159
171.099	186
173.0776	190
175.0931	195
185.0773	196
187.0933	209
189.0732	221
197.1148	234
199.112	245
201.1089	264
203.0879	268
205.0688	271
207.091	279
209.1141	282
211.1121	298
213.109	301
215.1066	302
217.0858	326
225.1088	337
227.1063	355
229.0862	412
233.0995	420
239.1249	423
243.101	459
245.1171	566
247.0785	568
253.1047	570
255.1198	598
261.112	676
271.0962	707
273.1291	709
289.1269	786
301.127	913
303.105	999
