Mass spectrum: 20-ethyl Prostaglandin F2-alpha; ESI-TOF; MS2; CE: 6.0000000;  [M+H]+
Name: 20-ethyl Prostaglandin F2-alpha
Class: NA
Formula: C22H38O5
Exact mass: 382.27192
SMILES: CCCCCCCC(O)/C=C/[C@H]1C(O)CC(O)C1C/C=C\CCCC(=O)O
InChI: InChI=1S/C22H38O5/c1-2-3-4-5-8-11-17(23)14-15-19-18(20(24)16-21(19)25)12-9-6-7-10-13-22(26)27/h6,9,14-15,17-21,23-25H,2-5,7-8,10-13,16H2,1H3,(H,26,27)/b9-6-,15-14+/t17?,18?,19-,20?,21?/m1/s1
Instrument: waters xevo g2 TOF
Instrument type: ESI-TOF
Ms type: MS2
Ion mode: POSITIVE
Ionization: ESI
Collision energy: 6.0000000
Column name: Acquity CSHC18
Retention time: 4.167 min
Base peak: 383.27992
Precursor m/z: 383.27992
Precursor type: [M+H]+
m/z	relative intensity
110.0115	8
165.1627	3
187.1114	15
199.1118	6
217.1213	8
219.1347	6
231.141	7
235.1701	6
245.1912	7
273.2201	3
285.2213	109
286.2239	10
291.2319	55
293.2471	296
294.2505	51
303.2334	135
304.2356	23
311.2365	149
312.2424	28
313.2497	7
321.2418	23
326.3775	46
327.3019	2
329.248	11
330.2518	217
331.2607	64
332.263	12
345.2463	18
347.2582	999
348.2616	249
349.2664	36
363.2526	14
365.2597	254
367.2305	3
375.1619	26
384.2408	38
384.743	24
