Mass spectrum: Monomethyl phthalate; LC-ESI-ITFT; MS2; CE: 30;  [M+H]+
Name: Monomethyl phthalate
Class: Benzenoids; Benzene and substituted derivatives; Benzoic acids and derivatives
Formula: C9H8O4
Exact mass: 180.04226
SMILES: COC(=O)C1=CC=CC=C1C(O)=O
InChI: InChI=1S/C9H8O4/c1-13-9(12)7-5-3-2-4-6(7)8(10)11/h2-5H,1H3,(H,10,11)
Instrument: Thermo Scientific Q-Exactive Focus
Instrument type: LC-ESI-ITFT
Ms type: MS2
Ion mode: POSITIVE
Ionization: ESI
Collision energy: 30
Column name: Acquity CSHC18
Retention time: 0.914 min
Base peak: 181.04955
Precursor m/z: 181.04955
Precursor type: [M+H]+
m/z	relative intensity
53.0391	276
65.0391	999
92.026	294
95.0494	684
111.0442	185
121.0285	584
121.0397	237
133.0284	231
135.044	297
149.0232	504
