Mass spectrum: N-Acetylmannosamine; ESI-TOF; MS2; CE: 0.6458333;  [M+H]+
Name: N-Acetylmannosamine
Class: NA
Formula: C8H15NO6
Exact mass: 221.08994
SMILES: CC(=O)NC1C(O)OC(CO)C(O)C1O
InChI: InChI=1S/C8H15NO6/c1-3(11)9-5-7(13)6(12)4(2-10)15-8(5)14/h4-8,10,12-14H,2H2,1H3,(H,9,11)
Instrument: waters xevo g2 TOF
Instrument type: ESI-TOF
Ms type: MS2
Ion mode: POSITIVE
Ionization: ESI
Collision energy: 0.6458333
Column name: Acquity CSHC18
Retention time: 0.570 min
Base peak: 222.09794
Precursor m/z: 222.09794
Precursor type: [M+H]+
m/z	relative intensity
69.0335	28
72.9379	100
84.0449	309
96.0448	692
98.0148	352
99.9691	132
109.0286	64
126.0554	288
127.9682	20
138.0552	999
140.0027	69
141.9592	208
144.0659	217
155.9747	171
158.9627	21
168.0661	54
172.9785	31
186.0763	39
200.9724	58
204.0872	50
215.9962	87
222.0984	20
