Mass spectrum: O-acyl sugar AS7; LC-ESI-QTOF; MS2; CE: 22.5eV; [M+Na]+
Name: O-acyl sugar AS7
Class: O-acyl sugar
Formula: C27H44O15
Exact mass: 608.2680
SMILES: CC(C)C(=O)O[C@H]1[C@H](O[C@H](CO)[C@@H](OC(=O)C(C)CC)[C@@H]1OC(=O)C(C)C)O[C@]1(CO)O[C@H](CO)[C@@H](OC(C)=O)[C@@H]1O
InChI: InChI=1S/C27H44O15/c1-8-14(6)25(35)38-18-16(9-28)37-26(21(40-24(34)13(4)5)20(18)39-23(33)12(2)3)42-27(11-30)22(32)19(36-15(7)31)17(10-29)41-27/h12-14,16-22,26,28-30,32H,8-11H2,1-7H3/t14?,16-,17-,18-,19-,20+,21-,22+,26-,27+/m1/s1
Instrument: Microtof-q MS
Instrument type: LC-ESI-QTOF
Ms type: MS2
Ion mode: POSITIVE
Ionization: ESI
Collision energy: 22.5eV
Column name: Acquity CSH C18 column (particle size 1.7 μm, column length 2.1 × 50 mm) (Waters)
Retention time: NA
Base peak: 631.2554
Precursor m/z: 631.2554
Precursor type: [M+Na]+
m/z	relative intensity
97.0291	63
205.0702	53
325.1222	43
427.1928	403
543.1990	60
631.2554	999
