Mass spectrum: D-mannitol; LC-ESI-QTOF; MS2; CE: 15.00;  [M+H]+
Name: D-mannitol
Class: NA
Formula: C6H14O6
Exact mass: 182.0790
SMILES: C(C(C(C(C(CO)O)O)O)O)O
InChI: InChI=1S/C6H14O6/c7-1-3(9)5(11)6(12)4(10)2-8/h3-12H,1-2H2
Instrument: Bruker MicrOTOF-Q
Instrument type: LC-ESI-QTOF
Ms type: MS2
Ion mode: POSITIVE
Ionization: ESI
Collision energy: 15.00
Column name: Acquity CSHC18
Retention time: NA
Base peak: 183.0863
Precursor m/z: 183.0863
Precursor type: [M+H]+
m/z	relative intensity
99.0403	642
101.0599	54
103.0369	415
111.0464	862
112.0539	86
117.0558	494
118.0555	52
129.0516	999
130.0502	59
147.0634	573
148.0733	47
