Mass spectrum: GDP-L-fucose; LC-ESI-QTOF; MS2; CE: 100;  [M-H]-
Name: GDP-L-fucose
Class: Purine nucleotide sugars
Formula: C16H25N5O15P2
Exact mass: 589.08224
SMILES: C[C@@H]1OC(OP(O)(=O)OP(O)(=O)OC[C@H]2O[C@H]([C@H](O)[C@@H]2O)N2C=NC3=C2N=C(N)NC3=O)[C@@H](O)[C@H](O)[C@@H]1O
InChI: InChI=1S/C16H25N5O15P2/c1-4-7(22)9(24)11(26)15(33-4)35-38(30,31)36-37(28,29)32-2-5-8(23)10(25)14(34-5)21-3-18-6-12(21)19-16(17)20-13(6)27/h3-5,7-11,14-15,22-26H,2H2,1H3,(H,28,29)(H,30,31)(H3,17,19,20,27)/t4-,5+,7+,8+,9+,10+,11-,14+,15?/m0/s1
Instrument: impact II
Instrument type: LC-ESI-QTOF
Ms type: MS2
Ion mode: NEGATIVE
Ionization: ESI
Collision energy: 100
Column name: Acquity CSHC18
Retention time: 1.703 min
Base peak: 588.07350
Precursor m/z: 588.07350
Precursor type: [M-H]-
m/z	relative intensity
62.964	11
66.0097	5
78.0097	1
78.9588	999
78.9698	71
78.9989	8
79.0217	11
79.0301	18
79.0432	9
79.057	1
79.072	2
79.0799	5
79.114	2
79.1422	1
79.1487	1
79.168	1
79.1792	1
79.2012	1
79.2167	1
79.2448	1
79.2565	1
79.2705	1
79.2844	1
79.9637	1
80.9633	3
96.9694	25
102.9707	1
105.0207	1
107.0361	6
108.0201	12
120.9693	3
126.0306	3
132.0314	2
133.0155	58
133.0295	2
134.0185	4
136.9646	1
150.0419	19
150.9794	1
151.0439	1
158.925	46
158.9405	2
