Mass spectrum: tigogenin; APCI-ITFT; MS2; CE: CID 35;  [M-H]-
Name: tigogenin
Class: NA
Formula: C27H44O3
Exact mass: 416.32905
SMILES: CC1CCC2(C(C3C(O2)CC4C3(CCC5C4CCC6C5(CCC(C6)O)C)C)C)OC1
InChI: InChI=1S/C27H44O3/c1-16-7-12-27(29-15-16)17(2)24-23(30-27)14-22-20-6-5-18-13-19(28)8-10-25(18,3)21(20)9-11-26(22,24)4/h16-24,28H,5-15H2,1-4H3
Instrument: Orbitrap Elite
Instrument type: APCI-ITFT
Ms type: MS2
Ion mode: NEGATIVE
Ionization: APCI
Collision energy: CID 35
Column name: Acquity CSHC18
Retention time: 0.107 min
Base peak: 415.32130
Precursor m/z: 415.32130
Precursor type: [M-H]-
Precursor intensity: 166462
m/z	relative intensity
242.8272	203
344.1416	355
356.2923	530
370.9213	543
385.514	543
397.7099	592
413.7491	999
