Mass spectrum: Sphinganine; LC-ESI-ITFT; MS2; CE: 30;  [M+H]+
Name: Sphinganine
Class: Organic nitrogen compounds; Organonitrogen compounds; Amines
Formula: C18H39NO2
Exact mass: 301.29808
SMILES: CCCCCCCCCCCCCCC[C@@H](O)[C@@H](N)CO
InChI: InChI=1S/C18H39NO2/c1-2-3-4-5-6-7-8-9-10-11-12-13-14-15-18(21)17(19)16-20/h17-18,20-21H,2-16,19H2,1H3/t17-,18+/m0/s1
Instrument: Thermo Scientific Q-Exactive Focus
Instrument type: LC-ESI-ITFT
Ms type: MS2
Ion mode: POSITIVE
Ionization: ESI
Collision energy: 30
Column name: Acquity CSHC18
Retention time: 0.914 min
Base peak: 302.30536
Precursor m/z: 302.30536
Precursor type: [M+H]+
m/z	relative intensity
55.0548	148
57.0704	73
60.0449	999
67.0547	199
69.0703	153
81.0702	182
83.0859	88
95.0858	188
109.1013	59
254.2838	148
