Mass spectrum: Ginkgolic acid C17:1; LC-ESI-QFT; MS2; CE: 15,30,45 (NCE);  [M-H]-
Name: Ginkgolic acid C17:1
Class: NA
Formula: C24H38O3
Exact mass: 374.2821
SMILES: CCCCCC\\C=C\\CCCCCCCCCC1=C(C(O)=O)C(O)=CC=C1
InChI: InChI=1S/C24H38O3/c1-2-3-4-5-6-7-8-9-10-11-12-13-14-15-16-18-21-19-17-20-22(25)23(21)24(26)27/h7-8,17,19-20,25H,2-6,9-16,18H2,1H3,(H,26,27)/b8-7+
Instrument: QE Focus, Thermo Scientfic; UPLC I-Class, Waters
Instrument type: LC-ESI-QFT
Ms type: MS2
Ion mode: NEGATIVE
Ionization: ESI
Collision energy: 15,30,45 (NCE)
Column name: Acquity CSHC18
Retention time: 6.988 min
Base peak: 373.2747
Precursor m/z: 373.2747
Precursor type: [M-H]-
Precursor intensity: 1174753000
m/z	relative intensity
106.0411	999
248.0717	505
