Mass spectrum: N-16:0 L-Serine; ESI-TOF; MS2; CE: 6.0000000;  [M+H]+
Name: N-16:0 L-Serine
Class: NA
Formula: C19H37NO4
Exact mass: 343.27226
SMILES: OC(=O)C(NC(=O)CCCCCCCCCCCCCCC)CO
InChI: InChI=1S/C19H37NO4/c1-2-3-4-5-6-7-8-9-10-11-12-13-14-15-18(22)20-17(16-21)19(23)24/h17,21H,2-16H2,1H3,(H,20,22)(H,23,24)
Instrument: waters xevo g2 TOF
Instrument type: ESI-TOF
Ms type: MS2
Ion mode: POSITIVE
Ionization: ESI
Collision energy: 6.0000000
Column name: Acquity CSHC18
Retention time: 7.285 min
Base peak: 344.28026
Precursor m/z: 344.28026
Precursor type: [M+H]+
m/z	relative intensity
106.0506	85
191.6124	234
192.1194	50
200.6232	20
212.1444	18
239.2373	15
298.2726	4
305.7212	7
306.2243	3
320.2268	13
326.2691	39
336.1999	2
344.281	999
345.2835	228
