Mass spectrum: (+)-Cloprostenol; ESI-TOF; MS2; CE: 6.0000000;  [M+H]+
Name: (+)-Cloprostenol
Class: NA
Formula: C22H29ClO6
Exact mass: 424.16527
SMILES: C1C(C(C(C1O)C=CC(COC2=CC(=CC=C2)Cl)O)CC=CCCCC(=O)O)O
InChI: InChI=1S/C22H29ClO6/c23-15-6-5-7-17(12-15)29-14-16(24)10-11-19-18(20(25)13-21(19)26)8-3-1-2-4-9-22(27)28/h1,3,5-7,10-12,16,18-21,24-26H,2,4,8-9,13-14H2,(H,27,28)
Instrument: waters xevo g2 TOF
Instrument type: ESI-TOF
Ms type: MS2
Ion mode: POSITIVE
Ionization: ESI
Collision energy: 6.0000000
Column name: Acquity CSHC18
Retention time: 3.585 min
Base peak: 425.17327
Precursor m/z: 425.17327
Precursor type: [M+H]+
m/z	relative intensity
83.0494	1
91.055	1
93.0704	1
105.0711	12
107.0509	1
115.0552	1
117.0709	1
119.0861	1
128.0111	7
129.0705	22
131.0858	18
133.0844	7
141.0701	1
142.0766	1
143.0859	21
144.0895	1
145.1016	37
147.1001	17
153.0704	1
155.0872	1
156.0892	1
157.1015	1
159.082	35
161.0966	63
165.0945	6
167.0718	40
168.0859	1
169.1013	12
171.1189	46
173.1139	7
179.0951	14
181.1023	36
182.107	1
183.1171	30
187.1107	1
189.1276	132
190.1311	8
191.1096	7
197.1336	75
199.1078	42
201.1265	28
207.1368	171
208.1419	11
214.0517	27
215.1433	52
217.1224	92
218.1274	9
219.1392	24
223.0583	55
225.1277	189
226.1314	26
231.1405	8
233.1537	31
235.1681	10
243.0979	279
244.1411	81
245.1532	38
261.1482	445
262.1507	73
263.1573	9
273.0779	1
275.1631	11
277.0512	1
279.1595	999
280.1627	166
281.1631	15
293.1699	16
345.1222	8
371.1389	108
372.1402	17
373.1392	27
388.0603	76
389.1528	72
390.1611	14
391.1492	24
407.1626	22
417.0576	1
