Mass spectrum: Coniferylalcohol; LC-ESI-QTOF; MS2; CE: 35.00;  [M-H2O+H]+
Name: Coniferylalcohol
Class: NA
Formula: C10H12O3
Exact mass: 180.0786
SMILES: COC1=C(C=CC(=C1)C=CCO)O
InChI: InChI=1S/C10H12O3/c1-13-10-7-8(3-2-6-11)4-5-9(10)12/h2-5,7,11-12H,6H2,1H3
Instrument: Bruker MicrOTOF-Q
Instrument type: LC-ESI-QTOF
Ms type: MS2
Ion mode: POSITIVE
Ionization: ESI
Collision energy: 35.00
Column name: Acquity CSHC18
Retention time: NA
Base peak: 163.0761
Precursor m/z: 163.0761
Precursor type: [M-H2O+H]+
m/z	relative intensity
131.0445	999
