Mass spectrum: Herniarin; LC-ESI-QTOF; MS2; CE: 50eV;  [M+H]+
Name: Herniarin
Class: Coumarin
Formula: C10H8O3
Exact mass: 176.0473
SMILES: COC1=CC2=C(C=C1)C=CC(=O)O2
InChI: InChI=1S/C10H8O3/c1-12-8-4-2-7-3-5-10(11)13-9(7)6-8/h2-6H,1H3
Instrument: TIMS-TOF Pro, Bruker Daltonik; Elute UHPLC System, Bruker Daltonik
Instrument type: LC-ESI-QTOF
Ms type: MS2
Ion mode: POSITIVE
Ionization: ESI
Collision energy: 50eV
Column name: Acquity CSHC18
Retention time: 6.996 min
Base peak: 177.0558
Precursor m/z: 177.0558
Precursor type: [M+H]+
Precursor intensity: 678045.9
m/z	relative intensity
17.6699	3
49.0059	2
51.0233	29
52.0312	18
55.0188	3
62.0138	5
65.0384	13
76.0313	10
77.0376	31
78.0463	197
79.0193	4
89.0385	26
90.0474	18
91.0424	6
91.0545	55
92.0245	7
103.053	8
105.0339	9
106.0412	36
108.0537	3
118.0413	94
119.045	9
120.4687	2
121.0528	13
121.065	737
122.0692	38
130.886	3
133.0294	16
133.0641	179
134.0341	20
134.069	23
135.0389	3
148.0333	2
148.0506	14
149.0601	47
158.0619	1
162.0301	47
163.0354	4
174.7222	3
177.0558	999
