Mass spectrum: Esculetin; LC-ESI-QTOF; MS2; CE: 0.00;  [M+H]+
Name: Esculetin
Class: NA
Formula: C9H6O4
Exact mass: 178.0266
SMILES: C1=CC(=O)OC2=CC(=C(C=C21)O)O
InChI: InChI=1S/C9H6O4/c10-6-3-5-1-2-9(12)13-8(5)4-7(6)11/h1-4,10-11H
Instrument: Bruker MicrOTOF-Q
Instrument type: LC-ESI-QTOF
Ms type: MS2
Ion mode: POSITIVE
Ionization: ESI
Collision energy: 0.00
Column name: Acquity CSHC18
Retention time: NA
Base peak: 179.0339
Precursor m/z: 179.0339
Precursor type: [M+H]+
m/z	relative intensity
109.0081	137
123.3861	140
132.9292	147
133.3661	165
133.6134	168
136.6334	184
136.9004	223
137.033	237
151.264	237
178.1593	239
178.2824	264
178.4375	322
178.9432	324
179.298	361
179.4995	383
179.665	499
179.8746	575
180.2096	828
180.9242	999
