Mass spectrum: quinidine; LC-ESI-QFT; MS2; CE: 15,30,45 (NCE);  [M+2H]2+
Name: quinidine
Class: NA
Formula: C20H24N2O2
Exact mass: 324.1838
SMILES: COC1=CC2=C(C=CN=C2C=C1)C(O)C1CC2CCN1CC2C=C
InChI: InChI=1S/C20H24N2O2/c1-3-13-12-22-9-7-14(13)10-19(22)20(23)16-6-8-21-18-5-4-15(24-2)11-17(16)18/h3-6,8,11,13-14,19-20,23H,1,7,9-10,12H2,2H3
Instrument: QE Focus, Thermo Scientfic; UPLC I-Class, Waters
Instrument type: LC-ESI-QFT
Ms type: MS2
Ion mode: POSITIVE
Ionization: ESI
Collision energy: 15,30,45 (NCE)
Column name: Acquity CSHC18
Retention time: 1.086 min
Base peak: 163.0993
Precursor m/z: 163.0993
Precursor type: [M+2H]2+
Precursor intensity: 1025755000
m/z	relative intensity
51.4751	3
52.6911	3
55.0553	63
65.0392	7
67.0552	456
68.0502	7
68.0584	12
69.0581	7
69.0707	7
79.0549	10
80.0462	5
80.0503	73
81.0579	7
81.0706	102
82.0659	99
83.0736	12
84.8484	4
94.0656	30
95.0736	26
95.0862	35
96.0814	10
98.0967	25
107.0554	21
107.0857	8
108.0814	61
109.0531	5
109.1017	114
115.0526	131
115.554	7
116.0525	9
116.0605	208
116.0686	7
116.5618	20
122.0968	43
126.0631	5
133.0702	5
135.0677	29
136.0756	30
136.1121	48
137.1202	12
142.0757	11
144.1543	4
158.0603	11
159.0679	21
160.0761	123
161.079	5
163.0993	999
