Mass spectrum: Norharman; LC-ESI-QTOF; MS2; CE: 15.00;  [M+H]+
Name: Norharman
Class: NA
Formula: C11H8N2
Exact mass: 168.0687
SMILES: C1=CC=C2C(=C1)C3=C(N2)C=NC=C3
InChI: InChI=1S/C11H8N2/c1-2-4-10-8(3-1)9-5-6-12-7-11(9)13-10/h1-7,13H
Instrument: Bruker MicrOTOF-Q
Instrument type: LC-ESI-QTOF
Ms type: MS2
Ion mode: POSITIVE
Ionization: ESI
Collision energy: 15.00
Column name: Acquity CSHC18
Retention time: NA
Base peak: 169.0760
Precursor m/z: 169.0760
Precursor type: [M+H]+
m/z	relative intensity
168.0681	51
169.0773	148
170.0792	999
