Mass spectrum: L-Arginine; LC-ESI-QTOF; MS2; CE: 15.00;  [M+H]+
Name: L-Arginine
Class: NA
Formula: C6H14N4O2
Exact mass: 174.1117
SMILES: C(CC(C(=O)O)N)CN=C(N)N
InChI: InChI=1S/C6H14N4O2/c7-4(5(11)12)2-1-3-10-6(8)9/h4H,1-3,7H2,(H,11,12)(H4,8,9,10)
Instrument: Bruker MicrOTOF-Q
Instrument type: LC-ESI-QTOF
Ms type: MS2
Ion mode: POSITIVE
Ionization: ESI
Collision energy: 15.00
Column name: Acquity CSHC18
Retention time: NA
Base peak: 175.1190
Precursor m/z: 175.1190
Precursor type: [M+H]+
m/z	relative intensity
70.0548	6
86.6835	3
108.9367	2
109.6348	3
112.0825	18
113.0906	3
114.1004	5
115.086	3
116.0706	197
117.0724	8
124.0843	2
129.4308	2
129.6304	2
129.93	3
130.0223	7
130.0968	900
130.251	3
130.3393	5
130.4795	2
130.5619	3
130.6094	2
130.6606	2
131.0994	62
131.3708	2
133.0053	2
133.095	4
140.0795	3
141.0671	40
142.0652	4
146.0965	3
157.1069	44
157.2699	4
157.3793	2
158.0013	2
158.0918	484
158.4547	2
159.0922	16
160.1024	4
160.2345	4
167.0134	2
175.0023	4
175.1176	999
175.3504	3
175.429	4
176.118	68
176.5081	2
176.6389	2
177.1258	2
206.8307	3
248.0041	2
466.695	3
592.7534	3
