Mass spectrum: HYDROXYPHENYLLACTATE; LC-ESI-QTOF; MS2; CE: 10;  [M-H]-
Name: HYDROXYPHENYLLACTATE
Class: NA
Formula: C9H10O4
Exact mass: 182.05791
SMILES: OC(CC1=CC=C(O)C=C1)C(O)=O
InChI: InChI=1S/C9H10O4/c10-7-3-1-6(2-4-7)5-8(11)9(12)13/h1-4,8,10-11H,5H2,(H,12,13)
Instrument: Agilent 6530Â Q-TOF LC/MS
Instrument type: LC-ESI-QTOF
Ms type: MS2
Ion mode: NEGATIVE
Ionization: ESI
Collision energy: 10
Column name: NA
Retention time: 0.200 min
Base peak: 181.04818
Precursor m/z: 181.04818
Precursor type: [M-H]-
Precursor intensity: 141
m/z	relative intensity
44.9969	133
73.0025	142
73.998	189
107.0526	220
117.0321	503
119.0632	603
134.0523	666
135.0734	866
163.0657	991
181.079	999
