Mass spectrum: β-Isoalantolactone; LC-ESI-ITFT; MS2; CE: 50eV;  [M+H]+
Name: β-Isoalantolactone
Class: Sesquiterpenelactone; Eudesmanolide
Formula: C15H20O2
Exact mass: 232.1463
SMILES: C[C@]12CCCC(=C)[C@@H]1C[C@H]3[C@@H](C2)OC(=O)C3=C
InChI: InChI=1S/C15H20O2/c1-9-5-4-6-15(3)8-13-11(7-12(9)15)10(2)14(16)17-13/h11-13H,1-2,4-8H2,3H3/t11-,12+,13-,15-/m1/s1
Instrument: Q Exactive Plus, ThermoFisher Scientific
Instrument type: LC-ESI-ITFT
Ms type: MS2
Ion mode: POSITIVE
Ionization: ESI
Collision energy: 50eV
Column name: Acquity CSHC18
Retention time: 12.536 min
Base peak: 233.1530
Precursor m/z: 233.1530
Precursor type: [M+H]+
Precursor intensity: 42854240
m/z	relative intensity
57.9191	17
63.7335	17
67.055	28
69.0705	27
79.0549	38
79.7826	18
81.0707	228
83.0862	25
91.0544	73
93.07	95
95.0856	273
105.0699	300
107.0863	111
109.1018	87
117.0695	38
119.0489	32
119.0859	106
121.1017	41
125.0602	17
128.8948	16
131.0848	207
133.0642	88
133.0999	124
135.1171	19
137.0594	41
141.1593	18
141.9308	17
145.1003	221
147.1171	123
151.0746	224
155.0855	19
157.1017	22
159.0812	109
159.1172	427
160.1235	18
161.1309	284
163.0751	28
169.1015	43
173.0957	222
177.0907	169
187.1468	999
191.1061	26
197.1335	146
205.1568	20
215.1418	470
233.155	548
