Mass spectrum: Malic acid; LC-ESI-QTOF; MS2; CE: 15 / 50;  [M-H]-
Name: Malic acid
Class: NA
Formula: C4H6O5
Exact mass: 134.0215
SMILES: C(C(C(=O)O)O)C(=O)O
InChI: InChI=1S/C4H6O5/c5-2(4(8)9)1-3(6)7/h2,5H,1H2,(H,6,7)(H,8,9)
Instrument: impact II
Instrument type: LC-ESI-QTOF
Ms type: MS2
Ion mode: NEGATIVE
Ionization: ESI
Collision energy: 15 / 50
Column name: Acquity CSHC18
Retention time: 0.672 min
Base peak: 133.0139
Precursor m/z: 133.0139
Precursor type: [M-H]-
m/z	relative intensity
71.0138	212
72.9932	196
89.0242	128
115.0036	999
133.014	122
