Mass spectrum: Thromboxane B2; ESI-TOF; MS2; CE: 6.0000000;  [M+H]+
Name: Thromboxane B2
Class: NA
Formula: C20H34O6
Exact mass: 370.23554
SMILES: CCCCCC(O)/C=C/[C@H]1OC(O)CC(O)C1C/C=C\CCCC(=O)O
InChI: InChI=1S/C20H34O6/c1-2-3-6-9-15(21)12-13-18-16(17(22)14-20(25)26-18)10-7-4-5-8-11-19(23)24/h4,7,12-13,15-18,20-22,25H,2-3,5-6,8-11,14H2,1H3,(H,23,24)/b7-4-,13-12+/t15?,16?,17?,18-,20?/m1/s1
Instrument: waters xevo g2 TOF
Instrument type: ESI-TOF
Ms type: MS2
Ion mode: POSITIVE
Ionization: ESI
Collision energy: 6.0000000
Column name: Acquity CSHC18
Retention time: 3.523 min
Base peak: 371.24354
Precursor m/z: 371.24354
Precursor type: [M+H]+
m/z	relative intensity
127.9797	40
131.0871	2
133.1008	8
141.9602	145
143.0865	7
149.0616	5
173.1156	5
174.0809	175
183.1169	14
187.0878	53
189.1305	9
196.0931	64
196.5943	17
199.1141	4
215.1451	6
219.1392	56
236.17	6
255.1722	7
263.2002	45
273.1845	34
289.2169	16
291.1956	99
292.1942	9
299.2011	102
300.2063	44
305.2997	4
309.2037	44
317.2117	734
318.2147	35
331.204	10
335.2221	999
336.2252	145
349.2376	79
353.2321	28
363.125	18
367.2487	12
372.2058	34
372.7043	22
