Mass spectrum: Trimethylamine N-oxide; LC-ESI-ITFT; MS2; CE: 100;  [M+H]+
Name: Trimethylamine N-oxide
Class: Organic nitrogen compounds; Organonitrogen compounds; Aminoxides
Formula: C3H9NO
Exact mass: 75.06841
SMILES: C[N+](C)(C)[O-]
InChI: InChI=1S/C3H9NO/c1-4(2,3)5/h1-3H3
Instrument: Thermo Scientific Q-Exactive Focus
Instrument type: LC-ESI-ITFT
Ms type: MS2
Ion mode: POSITIVE
Ionization: ESI
Collision energy: 100
Column name: Acquity CSHC18
Retention time: NA
Base peak: 76.07569
Precursor m/z: 76.07569
Precursor type: [M+H]+
m/z	relative intensity
55.2197	702
59.1495	688
59.3057	632
60.7584	771
61.7954	698
64.8853	677
66.5749	636
74.4036	999
77.781	721
87.1402	802
