Mass spectrum: Biotin; LC-ESI-ITFT; MS2; CE: 10;  [M+H]+
Name: Biotin
Class: Organoheterocyclic compounds; Biotin and derivatives
Formula: C10H16N2O3S
Exact mass: 244.08816
SMILES: [H][C@]12CS[C@@H](CCCCC(O)=O)[C@@]1([H])NC(=O)N2
InChI: InChI=1S/C10H16N2O3S/c13-8(14)4-2-1-3-7-9-6(5-16-7)11-10(15)12-9/h6-7,9H,1-5H2,(H,13,14)(H2,11,12,15)/t6-,7-,9-/m0/s1
Instrument: Thermo Scientific Q-Exactive Focus
Instrument type: LC-ESI-ITFT
Ms type: MS2
Ion mode: POSITIVE
Ionization: ESI
Collision energy: 10
Column name: Acquity CSHC18
Retention time: 0.348 min
Base peak: 245.09544
Precursor m/z: 245.09544
Precursor type: [M+H]+
m/z	relative intensity
97.0402	2
123.0266	1
146.1779	1
166.0686	3
167.0524	3
184.0792	1
199.0899	1
209.0741	6
227.0849	999
245.0952	411
