Mass spectrum: Salicin; LC-ESI-ITFT; MS2; CE: 20/50eV;  [M-H]-
Name: Salicin
Class: Salicinoid
Formula: C13H18O7
Exact mass: 286.1053
SMILES: C1=CC=C(C(=C1)CO)OC2C(C(C(C(O2)CO)O)O)O
InChI: InChI=1S/C13H18O7/c14-5-7-3-1-2-4-8(7)19-13-12(18)11(17)10(16)9(6-15)20-13/h1-4,9-18H,5-6H2
Instrument: Bruker timsTOF
Instrument type: LC-ESI-ITFT
Ms type: MS2
Ion mode: NEGATIVE
Ionization: ESI
Collision energy: 20/50eV
Column name: Acquity CSHC18
Retention time: 2.988 min
Base peak: 285.0978
Precursor m/z: 285.0978
Precursor type: [M-H]-
Precursor intensity: 6827.94
m/z	relative intensity
123.0428	999
199.1909	378
238.8624	430
239.8796	706
