Mass spectrum: Arginine; LC-ESI-QTOF; MS2; CE: 15.00;  [M+Na]+
Name: Arginine
Class: NA
Formula: C6H14N4O2
Exact mass: 174.1117
SMILES: C(CC(C(=O)O)N)CN=C(N)N
InChI: InChI=1S/C6H14N4O2/c7-4(5(11)12)2-1-3-10-6(8)9/h4H,1-3,7H2,(H,11,12)(H4,8,9,10)
Instrument: Bruker MicrOTOF-Q
Instrument type: LC-ESI-QTOF
Ms type: MS2
Ion mode: POSITIVE
Ionization: ESI
Collision energy: 15.00
Column name: Acquity CSHC18
Retention time: NA
Base peak: 197.1009
Precursor m/z: 197.1009
Precursor type: [M+Na]+
m/z	relative intensity
137.0659	429
137.12	39
138.0498	347
139.0682	45
152.0752	86
162.0659	338
167.086	53
179.0897	999
180.0734	338
197.1049	31
610.0932	42
