Mass spectrum: Kaempferol; LC-ESI-ITFT; MS2; CE: 0.3;  [M+H]+
Name: Kaempferol
Class: flavonols
Formula: C15H10O6
Exact mass: 286.0477
SMILES: C1=CC(=CC=C1C2=C(C(=O)C3=C(C=C(C=C3O2)O)O)O)O
InChI: InChI=1S/C15H10O6/c16-8-3-1-7(2-4-8)15-14(20)13(19)12-10(18)5-9(17)6-11(12)21-15/h1-6,16-18,20H
Instrument: LTQ-Orbitrap XL hybrid mass spectrometer (Thermo Scientific)
Instrument type: LC-ESI-ITFT
Ms type: MS2
Ion mode: POSITIVE
Ionization: ESI
Collision energy: 0.3
Column name: Acquity CSHC18
Retention time: 8.591 min
Base peak: 287.0538
Precursor m/z: 287.0538
Precursor type: [M+H]+
Precursor intensity: 11152870
m/z	relative intensity
74.1892	23
77.78	18
79.4287	19
79.8198	20
86.1474	18
87.0928	20
88.7748	24
89.4838	19
90.3058	23
95.457	26
106.5119	21
110.1933	22
110.4474	21
118.1315	26
119.9689	20
121.0275	120
128.3498	25
128.399	28
133.0278	79
134.0879	21
136.9054	23
137.461	25
139.0146	22
143.1669	30
147.0431	40
150.9401	23
153.0172	180
162.9786	28
163.1744	25
165.0172	413
165.9828	32
166.9486	28
171.0441	29
174.552	28
176.3819	32
176.6543	23
177.046	30
178.0018	29
178.0388	30
179.9642	27
180.3773	26
180.6776	30
183.1705	36
185.0578	42
187.5625	36
193.7545	24
194.7478	35
196.2001	27
196.3056	28
197.0585	68
198.2006	26
198.2166	29
200.6425	25
200.7663	31
202.3202	27
204.7108	26
206.2186	30
210.3716	33
211.472	26
213.0535	433
213.4605	30
213.6126	33
214.4553	46
215.0827	26
215.8781	28
216.0394	26
218.919	26
218.9347	27
219.7109	36
220.5516	34
223.0871	30
223.3142	39
223.4034	27
226.2132	31
226.9513	31
227.5908	31
227.6698	33
229.3259	34
231.0639	151
231.6201	27
232.1873	31
232.351	30
233.0873	27
234.3887	27
236.5222	47
239.1094	38
240.643	40
241.0485	478
242.2795	34
245.853	25
246.8714	42
248.171	29
249.5361	27
257.9011	35
258.0512	161
259.0584	85
259.084	30
259.1799	29
265.1726	35
266.4293	41
269.0438	144
269.2621	32
273.2763	37
276.934	27
278.6138	29
281.4264	32
282.0734	28
284.2404	33
284.2743	30
285.4242	26
286.0292	33
286.1102	30
286.6793	33
287.0541	999
287.2871	28
