Mass spectrum: UMP; LC-ESI-QTOF; MS2; CE: 60;  [M-H]-
Name: UMP
Class: NA
Formula: C9H13N2O9P
Exact mass: 324.03587
SMILES: C1=CN(C(=O)NC1=O)C2C(C(C(O2)COP(=O)(O)O)O)O
InChI: InChI=1S/C9H13N2O9P/c12-5-1-2-11(9(15)10-5)8-7(14)6(13)4(20-8)3-19-21(16,17)18/h1-2,4,6-8,13-14H,3H2,(H,10,12,15)(H2,16,17,18)
Instrument: impact II
Instrument type: LC-ESI-QTOF
Ms type: MS2
Ion mode: NEGATIVE
Ionization: ESI
Collision energy: 60
Column name: Acquity CSHC18
Retention time: 1.848 min
Base peak: 323.02850
Precursor m/z: 323.02850
Precursor type: [M-H]-
m/z	relative intensity
62.9643	2
78.9589	999
79.9606	2
80.9639	4
96.9696	65
111.0202	18
112.0232	2
183.0121	2
