Mass spectrum: Feruperin; LC-ESI-QTOF; MS2; CE: 50eV;  [M+H]+
Name: Feruperin
Class: NA
Formula: C17H21NO3
Exact mass: 287.1521
SMILES: OC(C(OC)=C1)=CC=C1/C=C/C=C/C(N2CCCCC2)=O
InChI: InChI=1S/C17H21NO3/c1-21-16-13-14(9-10-15(16)19)7-3-4-8-17(20)18-11-5-2-6-12-18/h3-4,7-10,13,19H,2,5-6,11-12H2,1H3/b7-3+,8-4+
Instrument: TIMS-TOF Pro, Bruker Daltonik; Elute UHPLC System, Bruker Daltonik
Instrument type: LC-ESI-QTOF
Ms type: MS2
Ion mode: POSITIVE
Ionization: ESI
Collision energy: 50eV
Column name: Acquity CSHC18
Retention time: 8.384 min
Base peak: 288.1582
Precursor m/z: 288.1582
Precursor type: [M+H]+
Precursor intensity: 512258.8
m/z	relative intensity
19.3077	3
28.5545	1
32.1796	1
41.0383	2
51.0227	1
55.0181	1
65.039	2
69.07	4
84.0799	3
86.0768	4
88.3757	3
91.0461	3
94.039	6
104.0613	3
109.0662	2
112.0742	29
115.0431	7
116.0561	6
117.0685	4
122.0349	16
124.9707	1
129.6482	1
131.0485	21
132.0566	16
133.0467	2
137.0485	85
138.0636	11
142.0423	3
143.0481	23
144.0556	7
146.0333	8
147.0802	8
148.0844	1
150.0914	5
152.106	36
160.0519	32
161.0571	11
162.0634	2
164.1018	1
171.0436	29
174.0845	1
175.074	23
177.0888	2
185.0886	3
188.0304	8
189.0511	3
200.1093	1
203.0569	999
203.2933	2
203.4743	10
204.0654	73
205.0752	5
217.121	8
256.1149	1
288.045	2
288.1339	8
