Mass spectrum: Tyramine; LC-ESI-QTOF; MS2; CE: 15.00;  [M+H]+
Name: Tyramine
Class: NA
Formula: C8H11NO
Exact mass: 137.0841
SMILES: C1=CC(=CC=C1CCN)O
InChI: InChI=1S/C8H11NO/c9-6-5-7-1-3-8(10)4-2-7/h1-4,10H,5-6,9H2
Instrument: Bruker MicrOTOF-Q
Instrument type: LC-ESI-QTOF
Ms type: MS2
Ion mode: POSITIVE
Ionization: ESI
Collision energy: 15.00
Column name: Acquity CSHC18
Retention time: NA
Base peak: 138.0913
Precursor m/z: 138.0913
Precursor type: [M+H]+
m/z	relative intensity
93.0688	2
103.0534	11
104.0536	2
120.9883	6
121.066	999
121.2159	2
121.449	4
121.5694	2
121.7386	2
122.07	67
235.1727	4
390.6999	2
