Mass spectrum: 1-METHYLADENOSINE; LC-ESI-QFT; MS2; CE: 30eV;  [M-H]-
Name: 1-METHYLADENOSINE
Class: NA
Formula: C11H15N5O4
Exact mass: 281.11240
SMILES: CN1C=NC2=C(N=CN2[C@@H]2O[C@H](CO)[C@@H](O)[C@H]2O)C1=N
InChI: InChI=1S/C11H15N5O4/c1-15-3-14-10-6(9(15)12)13-4-16(10)11-8(19)7(18)5(2-17)20-11/h3-5,7-8,11-12,17-19H,2H2,1H3/t5-,7-,8-,11-/m1/s1
Instrument: Q-Exactive Orbitrap, Thermo Scientfic; Ultimate 3000 HPLC, Thermo Scientfic
Instrument type: LC-ESI-QFT
Ms type: MS2
Ion mode: NEGATIVE
Ionization: ESI
Collision energy: 30eV
Column name: Acquity CSHC18
Retention time: 2.499 min
Base peak: 280.1051
Precursor m/z: 280.1051
Precursor type: [M-H]-
Precursor intensity: 170
m/z	relative intensity
52.2287	12
52.9711	10
55.4525	10
57.0287	9
59.7275	10
65.2368	11
67.2753	9
72.1191	10
84.1551	11
90.9268	11
96.9914	11
97.1482	12
98.6831	13
100.915	12
105.5694	11
113.0912	11
133.038	15
134.8031	11
145.5401	11
145.953	11
148.0613	999
149.0645	30
159.6664	12
168.9512	11
187.3027	16
199.8676	13
212.5516	11
251.7457	14
