Mass spectrum: L-Kynurenine; ESI-TOF; MS2; CE: 0.6458333;  [M+H]+
Name: L-Kynurenine
Class: NA
Formula: C10H12N2O3
Exact mass: 208.08479
SMILES: NC(CC(=O)C1=CC=CC=C1N)C(O)=O
InChI: InChI=1S/C10H12N2O3/c11-7-4-2-1-3-6(7)9(13)5-8(12)10(14)15/h1-4,8H,5,11-12H2,(H,14,15)
Instrument: waters xevo g2 TOF
Instrument type: ESI-TOF
Ms type: MS2
Ion mode: POSITIVE
Ionization: ESI
Collision energy: 0.6458333
Column name: Acquity CSHC18
Retention time: 1.195 min
Base peak: 209.09279
Precursor m/z: 209.09279
Precursor type: [M+H]+
m/z	relative intensity
77.0395	27
91.055	128
92.0512	70
94.066	151
99.0089	34
104.0502	74
117.0582	12
117.0587	32
118.0657	133
120.045	208
121.0482	6
128.0501	47
132.0451	175
136.0765	31
146.0606	999
147.0639	51
172.862	12
174.0554	56
