Mass spectrum: METHYLTHIOADENOSINE; LC-ESI-QFT; MS2; CE: 30eV;  [M-H]-
Name: METHYLTHIOADENOSINE
Class: NA
Formula: C11H15N5O3S
Exact mass: 297.08956
SMILES: CSC[C@H]1O[C@H]([C@H](O)[C@@H]1O)N1C=NC2=C1N=CN=C2N
InChI: InChI=1S/C11H15N5O3S/c1-20-2-5-7(17)8(18)11(19-5)16-4-15-6-9(12)13-3-14-10(6)16/h3-5,7-8,11,17-18H,2H2,1H3,(H2,12,13,14)/t5-,7-,8-,11-/m1/s1
Instrument: Q-Exactive Orbitrap, Thermo Scientfic; Ultimate 3000 HPLC, Thermo Scientfic
Instrument type: LC-ESI-QFT
Ms type: MS2
Ion mode: NEGATIVE
Ionization: ESI
Collision energy: 30eV
Column name: Acquity CSHC18
Retention time: 5.091 min
Base peak: 296.0823
Precursor m/z: 296.0823
Precursor type: [M-H]-
Precursor intensity: 152
m/z	relative intensity
52.9191	6
57.8323	6
58.1482	5
58.2361	6
63.3316	5
65.8026	5
68.83	5
75.3805	6
85.0577	6
87.5883	6
93.1825	6
97.34	6
101.0741	7
107.0429	6
114.757	6
116.4304	8
127.6997	8
134.0457	999
135.0491	27
137.1759	7
157.7327	6
166.7599	6
228.2597	10
282.9261	8
296.0818	10
