Mass spectrum: Naringin; LC-ESI-QTOF; MS2; CE: 31.62;  [M+H]+
Name: Naringin
Class: NA
Formula: C27H32O14
Exact mass: 580.1792
SMILES: CC1C(C(C(C(O1)OC2C(C(C(OC2OC3=CC(=C4C(=O)CC(OC4=C3)C5=CC=C(C=C5)O)O)CO)O)O)O)O)O
InChI: InChI=1S/C27H32O14/c1-10-20(32)22(34)24(36)26(37-10)41-25-23(35)21(33)18(9-28)40-27(25)38-13-6-14(30)19-15(31)8-16(39-17(19)7-13)11-2-4-12(29)5-3-11/h2-7,10,16,18,20-30,32-36H,8-9H2,1H3
Instrument: Bruker MicrOTOF-Q
Instrument type: LC-ESI-QTOF
Ms type: MS2
Ion mode: POSITIVE
Ionization: ESI
Collision energy: 31.62
Column name: Acquity CSHC18
Retention time: NA
Base peak: 581.1865
Precursor m/z: 581.1865
Precursor type: [M+H]+
m/z	relative intensity
147.0433	17
153.0178	18
154.0213	22
179.0336	25
195.0289	27
219.0297	43
263.0557	55
273.0767	168
274.0797	311
275.0822	999
