Mass spectrum: L-Carnitine; LC-ESI-QTOF; MS2; CE: 10;  [M+H]+
Name: L-Carnitine
Class: NA
Formula: C7H15NO3
Exact mass: 161.10519
SMILES: C[N+](C)(C)CC(CC(=O)[O-])O
InChI: InChI=1S/C7H15NO3/c1-8(2,3)5-6(9)4-7(10)11/h6,9H,4-5H2,1-3H3
Instrument: impact II
Instrument type: LC-ESI-QTOF
Ms type: MS2
Ion mode: POSITIVE
Ionization: ESI
Collision energy: 10
Column name: Acquity CSHC18
Retention time: 1.671 min
Base peak: 162.11280
Precursor m/z: 162.11280
Precursor type: [M+H]+
m/z	relative intensity
60.0817	16
85.0281	4
102.0916	8
103.0393	31
162.1124	999
162.127	84
162.1426	2
162.1702	3
162.1938	3
162.2046	5
162.2152	10
162.2336	4
162.275	3
162.2856	4
162.3345	2
163.1158	86
164.1167	5
