Mass spectrum: 12-Hydroxy-jasmonic acid; LC-ESI-QTOF; MS2; CE: 50eV;  [M-H]-
Name: 12-Hydroxy-jasmonic acid
Class: Fatty acid derivative
Formula: C12H18O4
Exact mass: 226.1205
SMILES: C1CC(=O)C(C1CC(=O)O)CC=CCCO
InChI: InChI=1S/C12H18O4/c13-7-3-1-2-4-10-9(8-12(15)16)5-6-11(10)14/h1-2,9-10,13H,3-8H2,(H,15,16)
Instrument: TIMS-TOF Pro, Bruker Daltonik; Elute UHPLC System, Bruker Daltonik
Instrument type: LC-ESI-QTOF
Ms type: MS2
Ion mode: NEGATIVE
Ionization: ESI
Collision energy: 50eV
Column name: Acquity CSHC18
Retention time: 4.856 min
Base peak: 225.1093
Precursor m/z: 225.1093
Precursor type: [M-H]-
Precursor intensity: 93501.94
m/z	relative intensity
36.6555	63
41.0024	999
57.0323	91
59.0151	386
81.0326	116
91.0523	63
95.0569	66
96.0526	76
97.0635	176
147.0787	107
225.1099	258
