Mass spectrum: 5,6,7-Trihydroxyflavone; LC-ESI-QTOF; MS2; CE: 15.00;  [M+H]+
Name: 5,6,7-Trihydroxyflavone
Class: NA
Formula: C15H10O5
Exact mass: 270.0528
SMILES: C1=CC=C(C=C1)C2=CC(=O)C3=C(O2)C=C(C(=C3O)O)O
InChI: InChI=1S/C15H10O5/c16-9-6-11(8-4-2-1-3-5-8)20-12-7-10(17)14(18)15(19)13(9)12/h1-7,17-19H
Instrument: Bruker MicrOTOF-Q
Instrument type: LC-ESI-QTOF
Ms type: MS2
Ion mode: POSITIVE
Ionization: ESI
Collision energy: 15.00
Column name: Acquity CSHC18
Retention time: NA
Base peak: 271.0601
Precursor m/z: 271.0601
Precursor type: [M+H]+
m/z	relative intensity
242.0524	14
253.0487	15
271.0634	249
272.0632	999
