Mass spectrum: L-Leucine; LC-ESI-QTOF; MS2; CE: 15.00;  [M-H]-
Name: L-Leucine
Class: NA
Formula: C6H13NO2
Exact mass: 131.0946
SMILES: CC(C)CC(C(=O)O)N
InChI: InChI=1S/C6H13NO2/c1-4(2)3-5(7)6(8)9/h4-5H,3,7H2,1-2H3,(H,8,9)
Instrument: Bruker MicrOTOF-Q
Instrument type: LC-ESI-QTOF
Ms type: MS2
Ion mode: NEGATIVE
Ionization: ESI
Collision energy: 15.00
Column name: Acquity CSHC18
Retention time: NA
Base peak: 130.0874
Precursor m/z: 130.0874
Precursor type: [M-H]-
m/z	relative intensity
50.8894	72
56.0833	128
57.3205	118
60.7802	82
83.1237	131
83.9066	108
92.0573	65
98.989	92
129.8869	134
130.0867	999
130.1325	128
131.0939	299
147.4068	92
153.986	69
154.0788	118
165.6716	72
196.6515	69
204.2842	78
212.5289	118
212.7225	85
254.5364	95
308.0166	82
317.1248	128
363.8968	69
384.1158	92
411.7867	69
414.4424	111
484.1819	105
484.5946	78
539.6442	78
622.9877	65
626.1202	124
647.2334	92
721.7612	88
727.6702	72
751.6844	75
781.1977	88
853.8703	101
855.5437	75
871.3344	85
952.6623	88
