Mass spectrum: H-Ile-Pro-OH; LC-ESI-QTOF; MS2; CE: 26.80;  [2M+H]+
Name: H-Ile-Pro-OH
Class: NA
Formula: C11H20N2O3
Exact mass: 228.1474
SMILES: CCC(C)C(C(=O)N1CCCC1C(=O)O)N
InChI: InChI=1S/C11H20N2O3/c1-3-7(2)9(12)10(14)13-6-4-5-8(13)11(15)16/h7-9H,3-6,12H2,1-2H3,(H,15,16)
Instrument: Bruker MicrOTOF-Q
Instrument type: LC-ESI-QTOF
Ms type: MS2
Ion mode: POSITIVE
Ionization: ESI
Collision energy: 26.80
Column name: Acquity CSHC18
Retention time: NA
Base peak: 457.3021
Precursor m/z: 457.3021
Precursor type: [2M+H]+
m/z	relative intensity
214	17
229.15	999
230.16	130
285.12	15
299.84	22
310.37	24
314.65	22
335.31	27
376.28	15
