Mass spectrum: Isorhamnetin 3-O-neohesperidoside; LC-ESI-QTOF; MS2; CE: 32.46;  [M-H]-
Name: Isorhamnetin 3-O-neohesperidoside
Class: NA
Formula: C28H32O16
Exact mass: 624.1690
SMILES: CC1C(C(C(C(O1)OC2C(C(C(OC2OC3=C(OC4=CC(=CC(=C4C3=O)O)O)C5=CC(=C(C=C5)O)OC)CO)O)O)O)O)O
InChI: InChI=1S/C28H32O16/c1-9-18(33)21(36)23(38)27(40-9)44-26-22(37)19(34)16(8-29)42-28(26)43-25-20(35)17-13(32)6-11(30)7-15(17)41-24(25)10-3-4-12(31)14(5-10)39-2/h3-7,9,16,18-19,21-23,26-34,36-38H,8H2,1-2H3
Instrument: Bruker MicrOTOF-Q
Instrument type: LC-ESI-QTOF
Ms type: MS2
Ion mode: NEGATIVE
Ionization: ESI
Collision energy: 32.46
Column name: Acquity CSHC18
Retention time: NA
Base peak: 623.1618
Precursor m/z: 623.1618
Precursor type: [M-H]-
m/z	relative intensity
107.0163	11
151.0024	33
152.0116	10
179.0006	25
199.0442	23
215.0326	22
227.0315	57
228.0363	18
242.0251	28
243.0292	699
244.0333	106
245.0341	17
255.0295	85
256.0333	23
257.0438	302
258.0502	36
259.058	24
270.0188	43
271.0241	999
272.0287	157
273.0278	27
281.0416	9
284.032	15
285.0404	587
286.047	634
287.0524	153
288.0559	20
296.0312	9
298.9983	357
301.0252	170
302.0211	13
311.0577	17
314.3009	589
317.0524	64
318.0426	9
325.0424	10
327.0525	11
328.0501	15
329.0671	9
339.0496	45
356.0564	31
357.0579	62
387.0724	10
459.0916	46
460.0984	16
623.1648	28
624.1704	16
