Mass spectrum: 3,4-dihydoxybenzoic acid; LC-ESI-QFT; MS2; CE: NCE_15_30_45;  [M-H]-
Name: 3,4-dihydoxybenzoic acid
Class: NA
Formula: C7H6O4
Exact mass: 154.0266
SMILES: C1=CC(=C(C=C1C(=O)O)O)O
InChI: InChI=1S/C7H6O4/c8-5-2-1-4(7(10)11)3-6(5)9/h1-3,8-9H,(H,10,11)
Instrument: Thermo_Qexactive_Plus
Instrument type: LC-ESI-QFT
Ms type: MS2
Ion mode: NEGATIVE
Ionization: ESI
Collision energy: NCE_15_30_45
Column name: Acquity CSHC18
Retention time: 1.912 min
Base peak: 153.0182
Precursor m/z: 153.0182
Precursor type: [M-H]-
Precursor intensity: 835453200
m/z	relative intensity
65.783	7
71.2239	8
81.0328	8
91.0178	8
91.1225	10
108.0199	12
109.028	16
110.0314	69
136.6354	366
153.0186	999
