Mass spectrum: TRYPTOPHAN; LC-ESI-QFT; MS2; CE: 30eV;  [M+H]+
Name: TRYPTOPHAN
Class: NA
Formula: C11H12N2O2
Exact mass: 204.08988
SMILES: N[C@@H](CC1=CNC2=CC=CC=C12)C(O)=O
InChI: InChI=1S/C11H12N2O2/c12-9(11(14)15)5-7-6-13-10-4-2-1-3-8(7)10/h1-4,6,9,13H,5,12H2,(H,14,15)/t9-/m0/s1
Instrument: Q-Exactive Orbitrap, Thermo Scientfic; Ultimate 3000 HPLC, Thermo Scientfic
Instrument type: LC-ESI-QFT
Ms type: MS2
Ion mode: POSITIVE
Ionization: ESI
Collision energy: 30eV
Column name: Acquity CSHC18
Retention time: 2.884 min
Base peak: 205.0972
Precursor m/z: 205.0972
Precursor type: [M+H]+
Precursor intensity: 129
m/z	relative intensity
54.4162	1
57.1795	1
58.7585	1
60.6142	1
66.4772	1
71.5201	1
73.4444	1
74.0244	13
74.1605	1
74.5304	1
83.3211	1
86.3295	1
87.0446	1
91.0545	3
92.9341	1
115.0546	3
117.0575	3
118.0655	58
124.1449	1
130.0654	13
132.0811	64
142.0654	7
143.0732	10
144.0446	7
144.081	163
145.0845	3
146.0602	999
147.0635	35
159.0919	155
160.076	13
160.095	5
168.4187	1
170.0603	50
180.234	1
182.3565	1
183.0828	1
189.0743	90
194.6661	1
205.0975	18
