Mass spectrum: N-Acetyl-L-tyrosine; ESI-TOF; MS2; CE: 6.0000000;  [M+H]+
Name: N-Acetyl-L-tyrosine
Class: NA
Formula: C11H13NO4
Exact mass: 223.08446
SMILES: CC(=O)NC(CC1=CC=C(O)C=C1)C(O)=O
InChI: InChI=1S/C11H13NO4/c1-7(13)12-10(11(15)16)6-8-2-4-9(14)5-3-8/h2-5,10,14H,6H2,1H3,(H,12,13)(H,15,16)
Instrument: waters xevo g2 TOF
Instrument type: ESI-TOF
Ms type: MS2
Ion mode: POSITIVE
Ionization: ESI
Collision energy: 6.0000000
Column name: Acquity CSHC18
Retention time: 1.850 min
Base peak: 224.09246
Precursor m/z: 224.09246
Precursor type: [M+H]+
m/z	relative intensity
114.9711	1
119.0497	24
123.0443	35
136.0763	441
137.0795	110
138.0825	6
138.991	8
144.0242	3
147.0446	36
165.055	377
166.058	36
178.0869	848
179.0899	100
180.0916	6
182.0817	999
183.0852	113
184.0872	9
206.0813	115
207.085	16
224.0925	619
225.0956	85
