Mass spectrum: Betaine; ESI-TOF; MS2; CE: 0.6458333;  [M+H]+
Name: Betaine
Class: NA
Formula: C5H11NO2
Exact mass: 117.07898
SMILES: C[N+](C)(C)CC([O-])=O
InChI: InChI=1S/C5H11NO2/c1-6(2,3)4-5(7)8/h4H2,1-3H3
Instrument: waters xevo g2 TOF
Instrument type: ESI-TOF
Ms type: MS2
Ion mode: POSITIVE
Ionization: ESI
Collision energy: 0.6458333
Column name: Acquity CSHC18
Retention time: 0.565 min
Base peak: 118.08698
Precursor m/z: 118.08698
Precursor type: [M+H]+
m/z	relative intensity
59.0747	12
101.9408	13
113.9644	25
118.087	999
119.0902	54
140.0693	223
235.165	6
257.148	131
491.3074	4
