Mass spectrum: 4-Methylsulphinylbutyl glucosinolate; LC-ESI-ITFT; MS2; CE: 30;  [M+H]+
Name: 4-Methylsulphinylbutyl glucosinolate
Class: NA
Formula: C12H23NO10S3
Exact mass: 437.0484
SMILES: CS(=O)CCCCC(=NOS(=O)(=O)O)SC1C(C(C(C(O1)CO)O)O)O
InChI: InChI=1S/C12H23NO10S3/c1-25(18)5-3-2-4-8(13-23-26(19,20)21)24-12-11(17)10(16)9(15)7(6-14)22-12/h7,9-12,14-17H,2-6H2,1H3,(H,19,20,21)
Instrument: q exactive focus thermo
Instrument type: LC-ESI-ITFT
Ms type: MS2
Ion mode: POSITIVE
Ionization: ESI
Collision energy: 30
Column name: Acquity CSHC18
Retention time: 1.491 min
Base peak: 438.0550
Precursor m/z: 438.0550
Precursor type: [M+H]+
Precursor intensity: 36801770
m/z	relative intensity
101.0289	47
102.0466	48
102.9577	62
103.0436	63
105.0496	63
107.0797	66
112.988	66
114.0462	67
115.0465	80
117.0468	80
119.0689	89
120.0688	90
121.0223	105
129.0029	111
131.008	116
133.0134	124
134.9664	167
141.0092	180
144.9682	183
146.061	190
147.0638	202
158.986	204
169.9815	215
174.9803	219
184.03	275
202.037	341
215.9865	361
218.0103	375
219.0151	379
220.0065	401
233.9867	406
235.9958	467
258.9886	468
271.9881	494
289.0285	999
