Mass spectrum: Prostaglandin A2; ESI-TOF; MS2; CE: 6.0000000;  [M+H]+
Name: Prostaglandin A2
Class: NA
Formula: C20H30O4
Exact mass: 334.21441
SMILES: CCCCC[C@@H](/C=C/[C@H]1C=CC(=O)[C@@H]1C/C=C\CCCC(=O)O)O
InChI: InChI=1S/C20H30O4/c1-2-3-6-9-17(21)14-12-16-13-15-19(22)18(16)10-7-4-5-8-11-20(23)24/h4,7,12-18,21H,2-3,5-6,8-11H2,1H3,(H,23,24)/b7-4-,14-12+/t16-,17-,18+/m0/s1
Instrument: waters xevo g2 TOF
Instrument type: ESI-TOF
Ms type: MS2
Ion mode: POSITIVE
Ionization: ESI
Collision energy: 6.0000000
Column name: Acquity CSHC18
Retention time: 3.884 min
Base peak: 335.22241
Precursor m/z: 335.22241
Precursor type: [M+H]+
m/z	relative intensity
79.0548	1
81.0706	1
93.0708	1
97.9698	65
107.0489	1
109.0655	1
115.0548	1
121.032	1
133.1021	1
144.0572	1
154.0768	1
159.0993	1
161.096	1
165.0486	1
167.087	1
168.0932	1
169.0997	4
170.1064	1
171.1173	1
173.0979	1
178.0828	48
178.5851	9
181.0971	1
185.0537	1
189.1257	7
197.0968	1
203.1433	17
215.144	225
216.1457	1
229.1075	40
240.2692	1
244.0156	1
247.0645	55
253.1922	14
259.1308	7
262.0295	34
263.1762	15
279.2306	10
281.191	94
282.1921	28
299.1494	999
300.2015	238
301.211	65
317.2117	648
318.2154	257
319.2164	25
323.2187	1
331.2257	7
332.3303	156
333.337	28
335.2244	20
336.1841	186
336.6866	77
337.1879	17
