Mass spectrum: 1-METHYL-L-HISTIDINE; LC-ESI-QTOF; MS2; CE: 10;  [M+H]+
Name: 1-METHYL-L-HISTIDINE
Class: NA
Formula: C7H11N3O2
Exact mass: 169.0851
SMILES: CN1C=NC(C[C@H](N)C(O)=O)=C1
InChI: InChI=1S/C7H11N3O2/c1-10-3-5(9-4-10)2-6(8)7(11)12/h3-4,6H,2,8H2,1H3,(H,11,12)/t6-/m0/s1
Instrument: Agilent 6530Â Q-TOF LC/MS
Instrument type: LC-ESI-QTOF
Ms type: MS2
Ion mode: POSITIVE
Ionization: ESI
Collision energy: 10
Column name: NA
Retention time: 0.200 min
Base peak: 170.09309
Precursor m/z: 170.09309
Precursor type: [M+H]+
Precursor intensity: 18.5
m/z	relative intensity
55.0546	23
68.0497	27
81.0469	31
82.0529	32
83.0602	38
95.0602	39
96.0662	60
96.9321	65
97.0734	88
107.0567	133
109.0759	218
124.0863	273
125.0709	999
170.0919	23
