Mass spectrum: dehydroepiandrosterone sulfate (sodium salt); ESI-TOF; MS2; CE: 0.6458333;  [M+H]+
Name: dehydroepiandrosterone sulfate (sodium salt)
Class: NA
Formula: C19H27NaO5S
Exact mass: 390.14769
SMILES: [H]C2=C1C([H])([H])C([H])(OS(=O)(=O)[O-])C([H])([H])C([H])([H])C1(C([H])([H])[H])C3([H])(C([H])([H])C([H])([H])C4(C(=O)C([H])([H])C([H])([H])C4([H])(C3([H])(C2([H])([H]))))(C([H])([H])[H])).[Na+]
InChI: InChI=1S/C19H28O5S.Na/c1-18-9-7-13(24-25(21,22)23)11-12(18)3-4-14-15-5-6-17(20)19(15,2)10-8-16(14)18;/h3,13-16H,4-11H2,1-2H3,(H,21,22,23);/q;+1/p-1
Instrument: waters xevo g2 TOF
Instrument type: ESI-TOF
Ms type: MS2
Ion mode: POSITIVE
Ionization: ESI
Collision energy: 0.6458333
Column name: Acquity CSHC18
Retention time: 5.442 min
Base peak: 391.15569
Precursor m/z: 391.15569
Precursor type: [M+H]+
m/z	relative intensity
97.0655	69
121.1014	55
145.1019	45
147.1173	93
157.1016	155
159.1176	47
197.1336	157
213.1643	109
253.1958	690
254.1991	1
269.1912	147
270.1982	99
270.1983	1
271.2062	1
271.2064	458
272.2107	94
288.2334	27
293.189	1
351.1634	1
407.1189	999
407.1225	1
408.1234	214
439.1472	1
448.1477	1
448.1478	1
449.1516	1
454.1114	1
466.1208	1
466.1232	1
480.1702	1
489.1735	1
527.0697	45
677.32	1
