Mass spectrum: Succinylacetone; LC-ESI-ITFT; MS2; CE: 100;  [M-H]-
Name: Succinylacetone
Class: Organic acids and derivatives; Keto acids and derivatives; Medium-chain keto acids and derivatives
Formula: C7H10O4
Exact mass: 158.05791
SMILES: CC(=O)CC(=O)CCC(O)=O
InChI: InChI=1S/C7H10O4/c1-5(8)4-6(9)2-3-7(10)11/h2-4H2,1H3,(H,10,11)
Instrument: Thermo Scientific Q-Exactive Focus
Instrument type: LC-ESI-ITFT
Ms type: MS2
Ion mode: NEGATIVE
Ionization: ESI
Collision energy: 100
Column name: Acquity CSHC18
Retention time: 2.583 min
Base peak: 157.05063
Precursor m/z: 157.05063
Precursor type: [M-H]-
m/z	relative intensity
65.1115	773
66.5523	741
71.8983	721
82.6614	786
101.0087	732
105.9432	999
115.3515	794
120.0783	723
137.8607	729
154.5328	758
