Mass spectrum: 4-IMIDAZOLEACETATE; LC-ESI-QTOF; MS2; CE: 20;  [M+H]+
Name: 4-IMIDAZOLEACETATE
Class: NA
Formula: C5H6N2O2
Exact mass: 126.04293
SMILES: OC(=O)CC1=CN=CN1
InChI: InChI=1S/C5H6N2O2/c8-5(9)1-4-2-6-3-7-4/h2-3H,1H2,(H,6,7)(H,8,9)
Instrument: Agilent 6530Â Q-TOF LC/MS
Instrument type: LC-ESI-QTOF
Ms type: MS2
Ion mode: POSITIVE
Ionization: ESI
Collision energy: 20
Column name: NA
Retention time: 0.200 min
Base peak: 127.05124
Precursor m/z: 127.05124
Precursor type: [M+H]+
Precursor intensity: 180.5
m/z	relative intensity
40.9693	16
51.0107	16
52.035	17
54.2437	17
55.0499	20
68.0504	20
80.424	21
80.7256	22
81.7867	23
82.7487	25
83.009	59
84.9602	70
96.0641	143
109.0345	417
127.0636	999
