Mass spectrum: Attenoside; LC-ESI-QTOF; MS2; CE: 25eV; [M+NH4]+
Name: Attenoside
Class: Diterpene
Formula: C44H74O21
Exact mass: 938.4720
SMILES: C[C@H]1[C@@H]([C@H]([C@H]([C@@H](O1)O[C@@H]2[C@H](O[C@H]([C@@H]([C@H]2O)O)O[C@@](C)(CC/C=C(\C)/CC/C=C(\C)/CC/C=C(/C)\CO[C@H]3[C@@H]([C@H]([C@@H]([C@H](O3)CO)O)O)O[C@H]4[C@@H]([C@H]([C@@H]([C@H](O4)CO)O)O)O)C=C)CO)O)O)O
InChI: InChI=1S/C44H74O21/c1-7-44(6,65-42-37(57)34(54)38(27(19-47)62-42)63-40-35(55)31(51)28(48)24(5)59-40)16-10-15-22(3)12-8-11-21(2)13-9-14-23(4)20-58-43-39(33(53)30(50)26(18-46)61-43)64-41-36(56)32(52)29(49)25(17-45)60-41/h7,11,14-15,24-43,45-57H,1,8-10,12-13,16-20H2,2-6H3/b21-11+,22-15+,23-14-/t24-,25+,26+,27+,28-,29+,30+,31+,32-,33-,34+,35+,36+,37+,38+,39+,40-,41-,42-,43+,44+/m0/s1
Instrument: Microtof-q MS
Instrument type: LC-ESI-QTOF
Ms type: MS2
Ion mode: POSITIVE
Ionization: ESI
Collision energy: 25eV
Column name: Acquity CSH C18 column (particle size 1.7 μm, column length 2.1 × 50 mm) (Waters)
Retention time: NA
Base peak: 956.5097
Precursor m/z: 956.5097
Precursor type: [M+NH4]+
m/z	relative intensity
135.1172	49
145.0501	225
149.1329	109
159.1167	46
161.1320	97
163.0603	213
175.1478	88
177.1643	103
189.1633	68
203.1791	59
215.1791	170
255.0865	78
271.2419	999
272.2446	195
273.0971	225
289.2528	138
309.1181	695
310.1208	91
325.1129	190
417.2985	70
