Mass spectrum: 3-Hydroxybutyric acid; LC-ESI-ITFT; MS2; CE: 30;  [M-H]-
Name: 3-Hydroxybutyric acid
Class: Organic acids and derivatives; Hydroxy acids and derivatives; Beta hydroxy acids and derivatives
Formula: C4H8O3
Exact mass: 104.04734
SMILES: CC(O)CC(O)=O
InChI: InChI=1S/C4H8O3/c1-3(5)2-4(6)7/h3,5H,2H2,1H3,(H,6,7)
Instrument: Thermo Scientific Q-Exactive Focus
Instrument type: LC-ESI-ITFT
Ms type: MS2
Ion mode: NEGATIVE
Ionization: ESI
Collision energy: 30
Column name: Acquity CSHC18
Retention time: 0.930 min
Base peak: 103.04007
Precursor m/z: 103.04007
Precursor type: [M-H]-
m/z	relative intensity
54.4721	314
55.8517	279
59.0126	999
60.7076	267
64.5304	267
93.186	308
94.6359	297
99.984	307
104.1975	291
114.7211	290
