Mass spectrum: 2-Deoxy-D-ribose; LC-ESI-QTOF; MS2; CE: 15.00;  [2M-H2O+Na]+
Name: 2-Deoxy-D-ribose
Class: NA
Formula: C5H10O4
Exact mass: 134.0579
SMILES: C(C=O)C(C(CO)O)O
InChI: InChI=1S/C5H10O4/c6-2-1-4(8)5(9)3-7/h2,4-5,7-9H,1,3H2
Instrument: Bruker MicrOTOF-Q
Instrument type: LC-ESI-QTOF
Ms type: MS2
Ion mode: POSITIVE
Ionization: ESI
Collision energy: 15.00
Column name: Acquity CSHC18
Retention time: NA
Base peak: 273.0969
Precursor m/z: 273.0969
Precursor type: [2M-H2O+Na]+
m/z	relative intensity
139.04	12
157.05	75
158.05	10
211.08	3
229.07	16
230.11	2
241.06	2
241.26	2
255.08	46
256.09	4
271.2	2
271.7	2
272.09	3
272.18	2
272.81	2
272.92	3
273.09	999
273.39	4
273.57	3
273.7	2
273.79	3
273.9	3
274.1	92
274.32	2
278.66	3
278.79	3
279.7	2
532.2	3
546.28	2
