Mass spectrum: SUCROSE; LC-ESI-QTOF; MS2; CE: 40;  [M-H]-
Name: SUCROSE
Class: NA
Formula: C12H22O11
Exact mass: 342.11621
SMILES: OC[C@H]1O[C@@](CO)(O[C@H]2O[C@H](CO)[C@@H](O)[C@H](O)[C@H]2O)[C@@H](O)[C@@H]1O
InChI: InChI=1S/C12H22O11/c13-1-4-6(16)8(18)9(19)11(21-4)23-12(3-15)10(20)7(17)5(2-14)22-12/h4-11,13-20H,1-3H2/t4-,5-,6-,7-,8+,9-,10+,11-,12+/m1/s1
Instrument: Agilent 6530Â Q-TOF LC/MS
Instrument type: LC-ESI-QTOF
Ms type: MS2
Ion mode: NEGATIVE
Ionization: ESI
Collision energy: 40
Column name: NA
Retention time: 0.200 min
Base peak: 341.10064
Precursor m/z: 341.10064
Precursor type: [M-H]-
Precursor intensity: 186
m/z	relative intensity
43.0187	107
59.0325	128
71.0221	140
85.0237	141
89.0222	154
101.0205	413
113.0168	999
