Mass spectrum: luteolin; LC-ESI-QTOF; MS2; CE: 20-40eV;  [M+H]+
Name: luteolin
Class: flavonoid
Formula: C15H10O6
Exact mass: 286.0477
SMILES: C1=CC(=C(C=C1C2=CC(C3=C(C=C(C=C3O2)O)O)=O)O)O
InChI: InChI=1S/C15H10O6/c16-8-4-11(19)15-12(20)6-13(21-14(15)5-8)7-1-2-9(17)10(18)3-7/h1-6,16-19H
Instrument: Impact II, Bruker; Dionex 3000, Thermo Scientific
Instrument type: LC-ESI-QTOF
Ms type: MS2
Ion mode: POSITIVE
Ionization: ESI
Collision energy: 20-40eV
Column name: Acquity CSHC18
Retention time: 4.430 min
Base peak: 287.0547
Precursor m/z: 287.0547
Precursor type: [M+H]+
Precursor intensity: 7729.12
m/z	relative intensity
109.103	27
121.1004	26
135.0431	38
137.0236	36
153.0173	196
157.065	27
199.1483	27
213.0551	24
269.047	56
287.0546	999
