Mass spectrum: 6-HYDROXYNICOTINATE; LC-ESI-QFT; MS2; CE: 30eV;  [M+H]+
Name: 6-HYDROXYNICOTINATE
Class: NA
Formula: C6H5NO3
Exact mass: 139.02694
SMILES: OC(=O)C1=CN=C(O)C=C1
InChI: InChI=1S/C6H5NO3/c8-5-2-1-4(3-7-5)6(9)10/h1-3H,(H,7,8)(H,9,10)
Instrument: Q-Exactive Orbitrap, Thermo Scientfic; Ultimate 3000 HPLC, Thermo Scientfic
Instrument type: LC-ESI-QFT
Ms type: MS2
Ion mode: POSITIVE
Ionization: ESI
Collision energy: 30eV
Column name: Acquity CSHC18
Retention time: 1.121 min
Base peak: 140.0342
Precursor m/z: 140.0342
Precursor type: [M+H]+
Precursor intensity: 195
m/z	relative intensity
51.0236	17
52.4917	6
53.4816	6
54.9477	10
55.303	5
55.9461	9
56.0503	9
56.0652	6
56.5387	6
59.9777	7
60.5169	6
62.4951	7
62.8112	7
64.3685	8
65.3164	8
67.7822	7
70.9426	16
72.5145	8
74.0971	89
75.3723	7
75.7174	6
78.0345	97
80.0138	7
80.7066	8
80.9458	37
83.05	13
85.0767	44
88.1714	7
88.9529	8
94.0291	9
94.1889	8
95.0133	13
95.0369	12
95.0496	33
95.0862	48
96.045	59
96.9726	7
97.0654	15
97.7874	7
98.072	17
110.6796	8
111.9689	138
112.0398	144
112.0874	137
112.5628	9
112.9674	17
114.0897	11
116.9667	165
116.9725	57
117.9463	8
122.0243	14
129.0138	9
129.9793	54
139.1121	11
139.9826	84
140.0683	289
141.032	63
141.0378	999
141.0717	9
141.1137	239
