Mass spectrum: ASCORBATE; LC-ESI-QFT; MS2; CE: 30eV;  [M+H]+
Name: ASCORBATE
Class: NA
Formula: C6H8O6
Exact mass: 176.03209
SMILES: [H][C@@]1(OC(=O)C(O)=C1O)[C@@H](O)CO
InChI: InChI=1S/C6H8O6/c7-1-2(8)5-3(9)4(10)6(11)12-5/h2,5,7-10H,1H2/t2-,5+/m0/s1
Instrument: Q-Exactive Orbitrap, Thermo Scientfic; Ultimate 3000 HPLC, Thermo Scientfic
Instrument type: LC-ESI-QFT
Ms type: MS2
Ion mode: POSITIVE
Ionization: ESI
Collision energy: 30eV
Column name: Acquity CSHC18
Retention time: 0.663 min
Base peak: 177.0394
Precursor m/z: 177.0394
Precursor type: [M+H]+
Precursor intensity: 119
m/z	relative intensity
52.2617	3
54.7801	3
55.1406	3
55.3038	4
55.935	6
56.8156	3
57.0342	78
58.5795	3
60.2276	3
67.0185	16
69.0342	67
71.0134	5
73.0291	22
74.0608	16
83.0134	7
84.9927	4
85.029	391
93.4802	4
95.0133	999
96.0166	19
96.9613	3
97.0289	73
97.6192	4
111.0081	24
113.0237	151
114.9719	106
115.0393	5
119.3328	3
122.0701	4
125.9614	4
129.0185	162
135.6114	4
135.9456	24
141.0184	284
142.0214	7
146.9619	5
148.9899	8
149.0236	21
153.9562	27
158.1177	86
158.9618	7
159.1211	8
161.607	3
167.5953	4
176.129	5
176.9722	5
177.0393	17
181.5113	4
