Mass spectrum: Phenylephrine; ESI-TOF; MS2; CE: 0.6458333;  [M+H]+
Name: Phenylephrine
Class: NA
Formula: C9H13NO2
Exact mass: 167.09463
SMILES: CNCC(O)C1=CC(O)=CC=C1
InChI: InChI=1S/C9H13NO2/c1-10-6-9(12)7-3-2-4-8(11)5-7/h2-5,9-12H,6H2,1H3
Instrument: waters xevo g2 TOF
Instrument type: ESI-TOF
Ms type: MS2
Ion mode: POSITIVE
Ionization: ESI
Collision energy: 0.6458333
Column name: Acquity CSHC18
Retention time: 0.575 min
Base peak: 168.10263
Precursor m/z: 168.10263
Precursor type: [M+H]+
m/z	relative intensity
57.0591	3
65.0403	6
78.0443	3
79.0553	45
80.0501	5
81.0711	111
82.0735	7
89.0392	2
90.0475	13
91.0552	999
92.058	92
93.0706	11
94.0421	56
95.048	9
96.962	11
99.9697	1
104.0598	6
105.0709	26
106.0664	39
107.0501	390
108.0565	93
110.0691	59
111.0723	2
115.0452	6
116.0405	8
117.0583	121
118.0656	117
120.0473	106
121.0656	185
122.0976	31
123.1022	2
130.066	10
131.0731	6
132.0818	60
133.0872	18
134.0609	258
136.0723	98
137.0679	6
146.0613	2
147.0703	1
148.0764	12
149.0841	19
150.1906	427
151.0952	183
152.0976	12
160.077	15
162.0922	7
168.1028	11
