Mass spectrum: Oxo-phytodienoic acid; LC-ESI-QTOF; MS2; CE: 15.00;  [M+H]+
Name: Oxo-phytodienoic acid
Class: NA
Formula: C18H28O3
Exact mass: 292.2038
SMILES: CCC=CCC1C(C=CC1=O)CCCCCCCC(=O)O
InChI: InChI=1S/C18H28O3/c1-2-3-7-11-16-15(13-14-17(16)19)10-8-5-4-6-9-12-18(20)21/h3,7,13-16H,2,4-6,8-12H2,1H3,(H,20,21)
Instrument: Bruker MicrOTOF-Q
Instrument type: LC-ESI-QTOF
Ms type: MS2
Ion mode: POSITIVE
Ionization: ESI
Collision energy: 15.00
Column name: Acquity CSHC18
Retention time: NA
Base peak: 293.2111
Precursor m/z: 293.2111
Precursor type: [M+H]+
m/z	relative intensity
105.6347	23
119.1032	16
129.0731	18
131.0871	119
133.0974	78
135.1172	73
137.0621	21
145.1039	18
147.0762	34
147.1141	32
149.1311	13
150.0934	23
151.104	16
157.0984	16
159.1121	36
161.1356	72
162.1349	16
163.1125	121
166.1361	13
169.0096	14
169.1052	13
171.1184	50
173.1264	62
174.1272	17
175.1055	16
177.1205	37
179.1378	25
180.6399	19
183.111	18
185.1274	25
187.1454	37
189.1703	30
191.1416	128
192.1507	35
193.1055	15
195.1314	17
199.1472	24
200.972	18
201.1295	54
203.1794	16
205.205	23
207.0429	23
207.1323	93
209.017	20
215.1419	36
216.1419	12
219.1451	41
220.1423	15
221.1069	15
229.1951	33
230.2064	21
231.1642	20
232.0164	16
233.1967	55
234.197	19
239.1875	67
247.2078	92
257.192	112
258.1937	71
265.2072	21
275.1985	999
276.2021	218
292.2466	13
293.2132	54
295.095	44
