Mass spectrum: Thymidine; LC-ESI-QTOF; MS2; CE: 15.00;  [M+HCOOH-H]-
Name: Thymidine
Class: NA
Formula: C10H14N2O5
Exact mass: 242.0903
SMILES: CC1=CN(C(=O)NC1=O)C2CC(C(O2)CO)O
InChI: InChI=1S/C10H14N2O5/c1-5-3-12(10(16)11-9(5)15)8-2-6(14)7(4-13)17-8/h3,6-8,13-14H,2,4H2,1H3,(H,11,15,16)
Instrument: Bruker MicrOTOF-Q
Instrument type: LC-ESI-QTOF
Ms type: MS2
Ion mode: NEGATIVE
Ionization: ESI
Collision energy: 15.00
Column name: Acquity CSHC18
Retention time: NA
Base peak: 287.0885
Precursor m/z: 287.0885
Precursor type: [M+HCOOH-H]-
m/z	relative intensity
45.3325	55
48.8043	33
50.3032	43
57.0167	58
59.3199	35
62.2277	42
65.3552	32
67.8249	50
71.5741	62
72.3967	39
74.0443	45
78.5389	49
79.4824	41
80.7873	45
82.2579	32
86.0223	58
88.4996	46
89.3838	39
92.8764	59
97.9902	31
103.7261	46
104.5179	48
105.846	44
109.2006	52
114.1311	42
114.8649	42
119.7682	52
122.8598	49
124.8422	131
125.8772	48
128.0526	36
129.0183	38
130.6306	41
133.5489	37
138.8399	42
142.1335	55
147.2102	45
151.0244	159
152.0558	56
160.1014	43
177.6104	36
179.6585	59
184.7157	45
185.1346	53
192.9611	65
198.0827	83
204.1965	43
204.8229	53
213.3352	38
213.8138	31
216.1671	53
218.0855	38
228.7616	32
230.6818	38
240.3325	82
241.2341	963
242.0852	999
243.0972	76
246.2927	33
303.4315	53
316.7223	31
364.216	29
436.0995	29
498.0842	28
516.7891	49
575.1645	62
653.9397	29
654.6607	31
677.9806	33
695.7114	60
907.5706	33
992.3336	41
994.7532	39
