Mass spectrum: 5-HYDROXYTRYPTOPHAN; LC-ESI-QFT; MS2; CE: 30eV;  [M-H]-
Name: 5-HYDROXYTRYPTOPHAN
Class: NA
Formula: C11H12N2O3
Exact mass: 220.08479
SMILES: NC(CC1=CNC2=C1C=C(O)C=C2)C(O)=O
InChI: InChI=1S/C11H12N2O3/c12-9(11(15)16)3-6-5-13-10-2-1-7(14)4-8(6)10/h1-2,4-5,9,13-14H,3,12H2,(H,15,16)
Instrument: Q-Exactive Orbitrap, Thermo Scientfic; Ultimate 3000 HPLC, Thermo Scientfic
Instrument type: LC-ESI-QFT
Ms type: MS2
Ion mode: NEGATIVE
Ionization: ESI
Collision energy: 30eV
Column name: Acquity CSHC18
Retention time: 1.189 min
Base peak: 219.0775
Precursor m/z: 219.0775
Precursor type: [M-H]-
Precursor intensity: 191
m/z	relative intensity
51.993	1
53.0428	1
53.3489	1
56.7393	1
56.7968	1
69.7417	1
70.6434	1
71.3808	1
72.0075	24
74.0231	568
75.0201	1
75.0265	10
82.5491	1
91.2697	1
113.3934	1
129.8658	9
131.036	2
132.0441	647
132.5188	2
133.0474	46
133.0758	7
144.0442	999
145.0416	3
145.0474	69
145.052	7
146.0597	8
148.0755	12
158.0599	172
159.0633	11
165.8865	1
173.0705	7
175.0866	118
201.066	3
202.0499	28
203.0533	2
208.2207	1
219.0768	549
219.5646	1
219.8447	4
220.0807	39
225.2939	1
225.76	2
237.0878	7
