Mass spectrum: 10366-91-3; LC-ESI-QTOF; MS2; CE: -10, -35, -60V;  [M-H]-
Name: 10366-91-3
Class: NA
Formula: C13H16O8
Exact mass: 300.0845
SMILES: C1=CC=C(C(=C1)C(=O)O)OC2C(C(C(C(O2)CO)O)O)O
InChI: InChI=1S/C13H16O8/c14-5-8-9(15)10(16)11(17)13(21-8)20-7-4-2-1-3-6(7)12(18)19/h1-4,8-11,13-17H,5H2,(H,18,19)
Instrument: TripleToF 5600; Sciex
Instrument type: LC-ESI-QTOF
Ms type: MS2
Ion mode: NEGATIVE
Ionization: ESI
Collision energy: -10, -35, -60V
Column name: Acquity CSHC18
Retention time: 7.365 min
Base peak: 299.0804
Precursor m/z: 299.0804
Precursor type: [M-H]-
Precursor intensity: 134782.3
m/z	relative intensity
87.0439	10
93.0358	411
94.0392	53
137.0112	999
137.0261	997
138.0293	146
139.0328	16
161.0465	18
299.0682	782
299.0804	776
