Mass spectrum: 4-AMINOBENZOATE; LC-ESI-QTOF; MS2; CE: 20;  [M+H]+
Name: 4-AMINOBENZOATE
Class: NA
Formula: C7H7NO2
Exact mass: 137.04768
SMILES: NC1=CC=C(C=C1)C(O)=O
InChI: InChI=1S/C7H7NO2/c8-6-3-1-5(2-4-6)7(9)10/h1-4H,8H2,(H,9,10)
Instrument: Agilent 6530Â Q-TOF LC/MS
Instrument type: LC-ESI-QTOF
Ms type: MS2
Ion mode: POSITIVE
Ionization: ESI
Collision energy: 20
Column name: NA
Retention time: 0.200 min
Base peak: 138.05569
Precursor m/z: 138.05569
Precursor type: [M+H]+
Precursor intensity: 127.5
m/z	relative intensity
65.0289	355
65.0335	634
65.0381	683
65.0427	581
65.0474	465
65.052	359
65.0566	274
65.0612	210
65.0658	166
65.0705	121
73.0004	92
73.0053	108
73.0102	92
77.0256	333
77.0306	794
77.0356	999
77.0406	916
77.0457	748
77.0507	585
77.0557	460
77.0608	347
77.0658	258
77.0708	196
77.0759	140
77.0809	94
92.0385	232
92.044	420
92.0495	436
92.055	358
92.0605	277
92.066	217
92.0715	166
92.077	122
92.0825	89
93.0474	218
93.053	374
93.0585	415
93.064	348
93.0696	286
93.0751	241
93.0806	181
93.0862	139
93.0917	104
94.0563	180
94.0619	225
94.0674	188
94.073	147
94.0785	116
94.0841	97
120.0328	216
120.0391	303
120.0453	292
120.0516	247
120.0579	201
120.0642	154
120.0704	117
120.0767	92
121.0143	88
121.0206	129
121.0269	128
121.0332	113
121.0395	93
138.0422	145
138.0489	183
138.0557	161
138.0624	126
138.0692	95
