Mass spectrum: Benzoic acid; LC-ESI-ITFT; MS2; CE: 20;  [M-H]-
Name: Benzoic acid
Class: Benzenoids; Benzene and substituted derivatives; Benzoic acids and derivatives
Formula: C7H6O2
Exact mass: 122.03678
SMILES: OC(=O)C1=CC=CC=C1
InChI: InChI=1S/C7H6O2/c8-7(9)6-4-2-1-3-5-6/h1-5H,(H,8,9)
Instrument: Thermo Scientific Q-Exactive Focus
Instrument type: LC-ESI-ITFT
Ms type: MS2
Ion mode: NEGATIVE
Ionization: ESI
Collision energy: 20
Column name: Acquity CSHC18
Retention time: NA
Base peak: 121.02950
Precursor m/z: 121.02950
Precursor type: [M-H]-
m/z	relative intensity
57.9745	38
61.9872	49
91.0177	35
93.0334	125
95.0126	29
108.0205	155
117.1846	23
121.0283	999
121.4339	23
139.4303	24
