Mass spectrum: Procyanidin B2; LC-ESI-QTOF; MS2; CE: 31.58;  [M+H]+
Name: Procyanidin B2
Class: NA
Formula: C30H26O12
Exact mass: 578.1424
SMILES: C1C(C(OC2=C1C(=CC(=C2C3C(C(OC4=CC(=CC(=C34)O)O)C5=CC(=C(C=C5)O)O)O)O)O)C6=CC(=C(C=C6)O)O)O
InChI: InChI=1S/C30H26O12/c31-13-7-20(37)24-23(8-13)41-29(12-2-4-16(33)19(36)6-12)27(40)26(24)25-21(38)10-17(34)14-9-22(39)28(42-30(14)25)11-1-3-15(32)18(35)5-11/h1-8,10,22,26-29,31-40H,9H2
Instrument: Bruker MicrOTOF-Q
Instrument type: LC-ESI-QTOF
Ms type: MS2
Ion mode: POSITIVE
Ionization: ESI
Collision energy: 31.58
Column name: Acquity CSHC18
Retention time: NA
Base peak: 579.1497
Precursor m/z: 579.1497
Precursor type: [M+H]+
m/z	relative intensity
123.0418	28
127.0368	29
135.0432	29
139.0371	30
151.0373	31
163.0381	31
164.0409	31
165.053	33
167.0342	34
177.0552	37
179.0333	39
187.0383	40
191.0336	45
197.0573	46
201.0529	48
203.0373	49
205.0491	52
207.0617	52
215.0656	54
225.0537	63
229.0489	63
231.0638	63
233.0434	64
234.0472	65
241.0478	69
243.0636	71
245.0431	76
247.0585	78
248.0629	88
253.0488	91
255.0629	95
257.0438	97
258.0458	101
259.0591	106
260.0613	118
261.0741	127
269.0441	131
271.0591	156
272.063	167
273.0734	174
275.0538	178
276.0571	193
283.0585	235
284.0629	255
287.0539	292
288.0576	347
289.0668	355
291.0843	357
299.0547	381
300.0606	386
301.0683	394
409.0905	498
410.0926	537
411.1025	999
