Mass spectrum: N-Acetyl-L-aspartic acid; ESI-TOF; MS2; CE: 6.0000000;  [M+H]+
Name: N-Acetyl-L-aspartic acid
Class: NA
Formula: C6H9NO5
Exact mass: 175.04807
SMILES: CC(=O)NC(CC(O)=O)C(O)=O
InChI: InChI=1S/C6H9NO5/c1-3(8)7-4(6(11)12)2-5(9)10/h4H,2H2,1H3,(H,7,8)(H,9,10)(H,11,12)
Instrument: waters xevo g2 TOF
Instrument type: ESI-TOF
Ms type: MS2
Ion mode: POSITIVE
Ionization: ESI
Collision energy: 6.0000000
Column name: Acquity CSHC18
Retention time: 0.741 min
Base peak: 176.05607
Precursor m/z: 176.05607
Precursor type: [M+H]+
m/z	relative intensity
74.0245	11
88.0399	164
116.0345	102
129.0528	6
130.0502	101
134.0451	999
136.0492	4
151.0363	1
158.0451	211
159.0486	2
176.0555	369
177.0586	5
182.014	13
189.9809	1
198.0377	273
199.0405	8
211.0386	5
213.0183	3
227.012	15
229.0121	3
274.9731	8
316.0346	4
320.0655	6
335.0296	5
336.0387	5
351.1025	14
373.0842	10
375.0621	6
386.0033	18
389.0504	28
400.0185	3
402.0229	3
404.0159	61
405.022	95
406.0227	13
407.0226	8
408.0277	1
409.0183	8
564.1005	21
565.1038	2
579.0632	22
580.0669	6
808.0298	1
