Mass spectrum: Syringic acid; LC-ESI-QTOF; MS2; CE: 15;  [M-H]-
Name: Syringic acid
Class: NA
Formula: C9H10O5
Exact mass: 198.0528
SMILES: COC1=CC(=CC(=C1O)OC)C(=O)O
InChI: InChI=1S/C9H10O5/c1-13-6-3-5(9(11)12)4-7(14-2)8(6)10/h3-4,10H,1-2H3,(H,11,12)
Instrument: Bruker MicrOTOF-Q
Instrument type: LC-ESI-QTOF
Ms type: MS2
Ion mode: NEGATIVE
Ionization: ESI
Collision energy: 15
Column name: Acquity CSHC18
Retention time: NA
Base peak: 197.0455
Precursor m/z: 197.0455
Precursor type: [M-H]-
m/z	relative intensity
95.0128	30
121.0297	88
123.0085	999
138.0317	91
166.9983	545
167.999	50
182.0226	312
183.0238	11
197.0464	9
