Mass spectrum: 2-METHYLCITRATE; LC-ESI-QTOF; MS2; CE: 10;  [M-H]-
Name: 2-METHYLCITRATE
Class: NA
Formula: C7H10O7
Exact mass: 206.04265
SMILES: CC(C(=O)O)C(CC(=O)O)(C(=O)O)O
InChI: InChI=1S/C7H10O7/c1-3(5(10)11)7(14,6(12)13)2-4(8)9/h3,14H,2H2,1H3,(H,8,9)(H,10,11)(H,12,13)
Instrument: Agilent 6530Â Q-TOF LC/MS
Instrument type: LC-ESI-QTOF
Ms type: MS2
Ion mode: NEGATIVE
Ionization: ESI
Collision energy: 10
Column name: NA
Retention time: 0.200 min
Base peak: 205.03814
Precursor m/z: 205.03814
Precursor type: [M-H]-
Precursor intensity: 169
m/z	relative intensity
71.057	201
81.0407	254
87.0192	278
99.0486	302
101.0273	336
125.0548	427
205.0454	999
