Mass spectrum: EPINEPHRINE; LC-ESI-QTOF; MS2; CE: 40;  [M+H]+
Name: EPINEPHRINE
Class: NA
Formula: C9H13NO3
Exact mass: 183.08954
SMILES: CNC[C@H](O)C1=CC=C(O)C(O)=C1
InChI: InChI=1S/C9H13NO3/c1-10-5-9(13)6-2-3-7(11)8(12)4-6/h2-4,9-13H,5H2,1H3/t9-/m0/s1
Instrument: Agilent 6530Â Q-TOF LC/MS
Instrument type: LC-ESI-QTOF
Ms type: MS2
Ion mode: POSITIVE
Ionization: ESI
Collision energy: 40
Column name: NA
Retention time: 0.200 min
Base peak: 184.09388
Precursor m/z: 184.09388
Precursor type: [M+H]+
Precursor intensity: 126.5
m/z	relative intensity
41.0427	27
42.0511	29
43.0436	29
44.0572	30
51.0414	30
52.033	31
53.0466	31
54.0446	33
55.0329	36
55.9615	36
56.0666	37
57.0796	39
58.071	40
63.0313	41
64.034	42
65.0561	44
66.0421	45
67.0543	45
68.0506	48
69.0589	49
71.9484	49
77.0909	52
78.0562	57
79.0704	58
80.0596	58
81.0498	59
84.0778	60
89.0468	65
90.0311	72
91.0727	75
93.0661	79
94.0723	80
95.0588	81
97.0584	84
104.0689	90
105.0622	96
106.0484	96
107.0719	97
108.0556	108
109.0318	115
110.0485	125
116.0501	160
117.0338	167
118.0653	192
120.0853	193
122.0591	209
123.0647	216
132.0475	227
133.0472	242
136.0419	277
146.0561	282
148.0751	311
149.0671	377
150.0553	492
151.0574	999
