Mass spectrum: acyl sugar_S3:19 (4,5,10); LC-ESI-ITFT; MS2; CE: 35 NCE;  [M+FA-H]-
Name: acyl sugar_S3:19 (4,5,10)
Class: acyl sugar
Formula: C31H54O14
Exact mass: 650.3514
SMILES: CC(C)CCCCCCC(=O)OC1C(C(OC1(CO)OC2C(C(C(C(O2)CO)OC(=O)CC(C)C)OC(=O)C(C)C)O)CO)O
InChI: InChI=1S/C31H54O14/c1-17(2)11-9-7-8-10-12-22(35)42-28-24(37)20(14-32)44-31(28,16-34)45-30-25(38)27(43-29(39)19(5)6)26(21(15-33)40-30)41-23(36)13-18(3)4/h17-21,24-28,30,32-34,37-38H,7-16H2,1-6H3
Instrument: LTQ Orbitrap XL, Thermo Scientfic; Aquity (U)HPLC, Waters
Instrument type: LC-ESI-ITFT
Ms type: MS2
Ion mode: NEGATIVE
Ionization: ESI
Collision energy: 35 NCE
Column name: Acquity CSHC18
Retention time: 41.542 min
Base peak: 695.3517
Precursor m/z: 695.3517
Precursor type: [M+FA-H]-
Precursor intensity: 1204054
m/z	relative intensity
273.9188	93
393.1407	348
407.1555	463
477.2007	669
525.5049	999
547.2723	678
579.3031	301
