Mass spectrum: ADENOSINE DIPHOSPHATE RIBOSE; LC-ESI-QFT; MS2; CE: 30eV;  [M+H]+
Name: ADENOSINE DIPHOSPHATE RIBOSE
Class: NA
Formula: C15H23N5O14P2
Exact mass: 559.07167
SMILES: NC1=C2N=CN(C3OC(COP(O)(=O)OP(O)(=O)OCC4OC(O)C(O)C4O)C(O)C3O)C2=NC=N1
InChI: InChI=1S/C15H23N5O14P2/c16-12-7-13(18-3-17-12)20(4-19-7)14-10(23)8(21)5(32-14)1-30-35(26,27)34-36(28,29)31-2-6-9(22)11(24)15(25)33-6/h3-6,8-11,14-15,21-25H,1-2H2,(H,26,27)(H,28,29)(H2,16,17,18)
Instrument: Q-Exactive Orbitrap, Thermo Scientfic; Ultimate 3000 HPLC, Thermo Scientfic
Instrument type: LC-ESI-QFT
Ms type: MS2
Ion mode: POSITIVE
Ionization: ESI
Collision energy: 30eV
Column name: Acquity CSHC18
Retention time: 0.656 min
Base peak: 560.0790
Precursor m/z: 560.0790
Precursor type: [M+H]+
Precursor intensity: 124
m/z	relative intensity
50.6861	2
52.5461	2
59.802	2
63.3465	2
78.615	2
81.0063	2
89.7936	2
90.3698	2
90.5189	2
97.0291	86
136.0623	999
137.0596	3
137.0656	22
183.2655	3
232.0831	5
234.4426	3
250.0945	5
339.8172	3
348.0716	114
348.1035	3
354.2924	3
386.4116	3
400.7383	3
428.0384	33
470.7378	3
483.7105	3
512.9172	3
572.7038	3
