Mass spectrum: ETHYLMALONATE; LC-ESI-QFT; MS2; CE: 30eV;  [M+H]+
Name: ETHYLMALONATE
Class: NA
Formula: C5H8O4
Exact mass: 132.04226
SMILES: CCC(C(O)=O)C(O)=O
InChI: InChI=1S/C5H8O4/c1-2-3(4(6)7)5(8)9/h3H,2H2,1H3,(H,6,7)(H,8,9)
Instrument: Q-Exactive Orbitrap, Thermo Scientfic; Ultimate 3000 HPLC, Thermo Scientfic
Instrument type: LC-ESI-QFT
Ms type: MS2
Ion mode: POSITIVE
Ionization: ESI
Collision energy: 30eV
Column name: Acquity CSHC18
Retention time: 1.677 min
Base peak: 133.0495
Precursor m/z: 133.0495
Precursor type: [M+H]+
Precursor intensity: 121
m/z	relative intensity
51.175	65
52.8785	73
53.9399	102
58.066	79
73.0655	101
74.8357	73
79.1362	79
87.0448	102
88.3737	82
89.1255	77
100.9439	90
101.8742	80
104.097	88
105.0703	837
109.5855	89
115.0392	212
127.0725	77
127.5221	88
133.0498	198
133.065	99
133.1015	999
136.7182	81
146.6515	87
153.4733	81
154.4843	107
