Mass spectrum: 15(R),19(R)-hydroxy Prostaglandin F1-alpha; ESI-TOF; MS2; CE: 6.0000000;  [M+H]+
Name: 15(R),19(R)-hydroxy Prostaglandin F1-alpha
Class: NA
Formula: C20H36O6
Exact mass: 372.25119
SMILES: O[C@@H]1[C@H](CCCCCCC(O)=O)[C@@H](/C=C/[C@H](O)CCC[C@H](O)C)[C@H](O)C1
InChI: InChI=1S/C20H36O6/c1-14(21)7-6-8-15(22)11-12-17-16(18(23)13-19(17)24)9-4-2-3-5-10-20(25)26/h11-12,14-19,21-24H,2-10,13H2,1H3,(H,25,26)/b12-11+/t14-,15-,16-,17-,18+,19-/m1/s1
Instrument: waters xevo g2 TOF
Instrument type: ESI-TOF
Ms type: MS2
Ion mode: POSITIVE
Ionization: ESI
Collision energy: 6.0000000
Column name: Acquity CSHC18
Retention time: 2.632 min
Base peak: 373.25919
Precursor m/z: 373.25919
Precursor type: [M+H]+
m/z	relative intensity
96.9624	82
145.1034	11
147.1177	4
159.1173	6
185.1336	17
221.1556	16
259.1672	6
261.1853	61
265.2059	12
275.2008	67
276.2167	6
283.2054	173
293.2121	27
301.2172	745
302.2206	159
311.2249	6
319.2291	999
320.23	177
321.2347	17
336.1384	167
337.2375	264
338.2399	57
355.247	90
364.1357	72
365.139	37
