Mass spectrum: GLUTATHIONE REDUCED; LC-ESI-QFT; MS2; CE: 30eV;  [M+H]+
Name: GLUTATHIONE REDUCED
Class: NA
Formula: C10H17N3O6S
Exact mass: 307.08381
SMILES: N[C@@H](CCC(=O)N[C@@H](CS)C(=O)NCC(O)=O)C(O)=O
InChI: InChI=1S/C10H17N3O6S/c11-5(10(18)19)1-2-7(14)13-6(4-20)9(17)12-3-8(15)16/h5-6,20H,1-4,11H2,(H,12,17)(H,13,14)(H,15,16)(H,18,19)/t5-,6-/m0/s1
Instrument: Q-Exactive Orbitrap, Thermo Scientfic; Ultimate 3000 HPLC, Thermo Scientfic
Instrument type: LC-ESI-QFT
Ms type: MS2
Ion mode: POSITIVE
Ionization: ESI
Collision energy: 30eV
Column name: Acquity CSHC18
Retention time: 0.737 min
Base peak: 308.0911
Precursor m/z: 308.0911
Precursor type: [M+H]+
Precursor intensity: 129
m/z	relative intensity
56.0503	1
58.9958	40
68.1942	1
73.7695	1
76.0223	999
76.0401	26
77.0218	1
77.0257	9
84.0451	188
85.0485	6
86.9906	8
88.0223	2
88.2114	1
90.5172	1
95.1971	1
102.0557	8
113.5291	1
115.4643	1
116.017	122
129.0665	2
130.0504	246
131.0537	3
136.5939	1
141.0488	1
142.0326	65
144.0118	184
145.0153	3
145.0611	6
146.0276	10
151.0541	2
161.0384	2
162.0224	848
163.0258	29
170.0275	65
179.049	578
180.0528	13
187.0542	30
188.0381	3
199.0543	10
205.0647	10
206.8327	1
215.0492	53
216.0331	15
227.0488	9
233.0596	208
234.0635	11
245.0597	61
246.0635	1
273.0549	10
289.8177	2
290.0809	12
291.0653	42
292.0691	2
295.627	1
295.7956	1
308.0921	16
308.9011	21
