Mass spectrum: L-Alanine; LC-ESI-ITFT; MS2; CE: 20;  [M+H]+
Name: L-Alanine
Class: Organic acids and derivatives; Carboxylic acids and derivatives; Amino acids, peptides, and analogues
Formula: C3H7NO2
Exact mass: 89.04768
SMILES: C[C@H](N)C(O)=O
InChI: InChI=1S/C3H7NO2/c1-2(4)3(5)6/h2H,4H2,1H3,(H,5,6)/t2-/m0/s1
Instrument: Thermo Scientific Q-Exactive Focus
Instrument type: LC-ESI-ITFT
Ms type: MS2
Ion mode: POSITIVE
Ionization: ESI
Collision energy: 20
Column name: Acquity CSHC18
Retention time: 0.634 min
Base peak: 90.05496
Precursor m/z: 90.05496
Precursor type: [M+H]+
m/z	relative intensity
55.7957	912
60.2831	902
68.5665	859
74.7354	988
79.2096	963
80.748	844
82.9782	999
90.6344	878
95.2076	945
95.309	917
