Mass spectrum: CYCLIC AMP; LC-ESI-QFT; MS2; CE: 30eV;  [M-H]-
Name: CYCLIC AMP
Class: NA
Formula: C10H12N5O6P
Exact mass: 329.05252
SMILES: NC1=NC=NC2=C1N=CN2[C@@H]1O[C@@H]2COP(O)(=O)O[C@H]2[C@H]1O
InChI: InChI=1S/C10H12N5O6P/c11-8-5-9(13-2-12-8)15(3-14-5)10-6(16)7-4(20-10)1-19-22(17,18)21-7/h2-4,6-7,10,16H,1H2,(H,17,18)(H2,11,12,13)/t4-,6-,7-,10-/m1/s1
Instrument: Q-Exactive Orbitrap, Thermo Scientfic; Ultimate 3000 HPLC, Thermo Scientfic
Instrument type: LC-ESI-QFT
Ms type: MS2
Ion mode: NEGATIVE
Ionization: ESI
Collision energy: 30eV
Column name: Acquity CSHC18
Retention time: 1.177 min
Base peak: 328.0452
Precursor m/z: 328.0452
Precursor type: [M-H]-
Precursor intensity: 191
m/z	relative intensity
51.4911	1
52.8869	1
52.8959	1
54.3063	1
57.6854	1
60.1975	1
61.1082	1
62.4969	1
62.9627	1
65.409	1
66.9211	1
69.5194	1
77.5728	1
78.9575	360
80.9732	6
81.3721	1
96.9681	29
107.0347	1
118.4893	1
134.9838	19
135.0428	18
135.0491	60
162.9787	2
167.1667	1
174.9791	9
192.9897	42
193.6578	1
193.6664	1
226.5259	1
227.0268	1
253.9253	1
301.5714	1
328.0451	999
329.0486	61
333.4498	1
