Mass spectrum: 13,14-dihydro-15-keto Prostaglandin D2; ESI-TOF; MS2; CE: 0.6458333;  [M+H]+
Name: 13,14-dihydro-15-keto Prostaglandin D2
Class: NA
Formula: C20H32O5
Exact mass: 352.22497
SMILES: CCCCCC(=O)CC[C@H]1C(=O)CC(O)C1C/C=C\CCCC(=O)O
InChI: InChI=1S/C20H32O5/c1-2-3-6-9-15(21)12-13-17-16(18(22)14-19(17)23)10-7-4-5-8-11-20(24)25/h4,7,16-18,22H,2-3,5-6,8-14H2,1H3,(H,24,25)/b7-4-/t16?,17-,18?/m1/s1
Instrument: waters xevo g2 TOF
Instrument type: ESI-TOF
Ms type: MS2
Ion mode: POSITIVE
Ionization: ESI
Collision energy: 0.6458333
Column name: Acquity CSHC18
Retention time: 3.634 min
Base peak: 353.23297
Precursor m/z: 353.23297
Precursor type: [M+H]+
m/z	relative intensity
71.0852	236
79.0545	119
93.0707	216
99.0815	635
100.0851	39
105.0696	202
107.0866	118
109.0664	152
111.0451	36
117.0705	344
119.086	169
121.0652	160
127.113	225
129.07	221
129.9807	6
131.0867	443
132.0881	40
133.0657	221
135.082	404
137.0612	76
141.1283	265
143.0866	218
145.101	195
147.117	113
149.0968	145
151.0773	67
155.086	143
157.1019	310
159.0812	143
161.1304	92
163.112	85
165.0558	35
169.1011	98
173.0967	387
174.0984	6
175.1122	303
178.0834	38
183.1172	217
185.0973	790
186.0994	56
187.1486	92
189.1286	154
190.1344	42
191.1068	434
192.109	45
196.0916	24
196.5951	6
197.133	76
201.1277	475
202.1302	64
203.104	874
205.1595	240
205.5999	6
211.1077	95
212.6071	6
215.143	332
216.1458	41
219.1371	195
221.1142	6
223.1701	6
233.1541	574
234.158	6
239.1782	39
247.0636	298
251.1634	71
252.167	6
253.1944	58
259.0641	75
263.1802	48
265.0741	330
266.0772	37
277.0744	72
281.1887	298
282.1914	62
299.2009	696
300.2063	125
304.2998	6
317.2108	999
318.2131	220
319.2164	6
335.2199	195
336.2217	29
337.2296	6
349.2393	6
353.1758	23
354.2337	6
