Mass spectrum: Fraxetin; LC-ESI-QTOF; MS2; CE: 15;  [M-H]-
Name: Fraxetin
Class: NA
Formula: C10H8O5
Exact mass: 208.0372
SMILES: COC1=C(C(=C2C(=C1)C=CC(=O)O2)O)O
InChI: InChI=1S/C10H8O5/c1-14-6-4-5-2-3-7(11)15-10(5)9(13)8(6)12/h2-4,12-13H,1H3
Instrument: Bruker MicrOTOF-Q
Instrument type: LC-ESI-QTOF
Ms type: MS2
Ion mode: NEGATIVE
Ionization: ESI
Collision energy: 15
Column name: Acquity CSHC18
Retention time: NA
Base peak: 207.0299
Precursor m/z: 207.0299
Precursor type: [M-H]-
m/z	relative intensity
108.0224	166
109.027	9
119.014	25
120.0216	215
121.025	19
123.0087	36
136.0171	109
147.0103	27
148.014	9
163.002	37
164.0118	564
165.0145	40
175.0045	205
176.0071	13
191.2056	16
192.4046	999
194.0118	30
207.0307	225
208.0354	13
