Mass spectrum: 17-Methyltestosterone; LC-ESI-QTOF; MS2; CE: 10;  [M+H]+
Name: 17-Methyltestosterone
Class: NA
Formula: C20H30O2
Exact mass: 302.2246
SMILES: CC12CCC(=O)C=C1CCC3C2CCC4(C3CCC4(C)O)C
InChI: InChI=1S/C20H30O2/c1-18-9-6-14(21)12-13(18)4-5-15-16(18)7-10-19(2)17(15)8-11-20(19,3)22/h12,15-17,22H,4-11H2,1-3H3
Instrument: Agilent 6560Â Ion Mobility Q-TOF LC/MS
Instrument type: LC-ESI-QTOF
Ms type: MS2
Ion mode: POSITIVE
Ionization: ESI
Collision energy: 10
Column name: Acquity CSHC18
Retention time: 0.200 min
Base peak: 303.2347
Precursor m/z: 303.2347
Precursor type: [M+H]+
Precursor intensity: 199.5
m/z	relative intensity
97.0623	999
97.0658	781
97.0692	481
200.9652	419
211.1485	596
211.1535	555
245.1909	431
304.2278	518
304.2339	497
