Mass spectrum: Taxifolin; LC-ESI-ITFT; MS2; CE: 35eV;  [M+H]+
Name: Taxifolin
Class: Flavonoid
Formula: C15H12O7
Exact mass: 304.0583
SMILES: C1=CC(=C(C=C1C2C(C(=O)C3=C(C=C(C=C3O2)O)O)O)O)O
InChI: InChI=1S/C15H12O7/c16-7-4-10(19)12-11(5-7)22-15(14(21)13(12)20)6-1-2-8(17)9(18)3-6/h1-5,14-19,21H
Instrument: LTQ Orbitrap XL, Thermo Scientfic; Dionex Ultimate 300
Instrument type: LC-ESI-ITFT
Ms type: MS2
Ion mode: POSITIVE
Ionization: ESI
Collision energy: 35eV
Column name: Lichrospher C18 Column 250*4 5um, Interchim
Retention time: 38.64 min
Base peak: 305.0641
Precursor m/z: 305.0641
Precursor type: [M+H]+
m/z	relative intensity
123.0382	9
126.9782	3
148.9896	46
151.0373	1
152.9176	303
161.0007	6
166.9204	9
175.0165	1
178.9763	12
194.9067	133
196.9417	1
203.0761	7
231.0111	41
241.0452	6
244.937	5
258.9588	999
269.0585	5
