Mass spectrum: ADENOSINE 5'-DIPHOSPHATE; LC-ESI-QFT; MS2; CE: 30eV;  [M+H]+
Name: ADENOSINE 5'-DIPHOSPHATE
Class: NA
Formula: C10H15N5O10P2
Exact mass: 427.02941
SMILES: NC1=NC=NC2=C1N=CN2[C@@H]1O[C@H](COP(O)(=O)OP(O)(O)=O)[C@@H](O)[C@H]1O
InChI: InChI=1S/C10H15N5O10P2/c11-8-5-9(13-2-12-8)15(3-14-5)10-7(17)6(16)4(24-10)1-23-27(21,22)25-26(18,19)20/h2-4,6-7,10,16-17H,1H2,(H,21,22)(H2,11,12,13)(H2,18,19,20)/t4-,6-,7-,10-/m1/s1
Instrument: Q-Exactive Orbitrap, Thermo Scientfic; Ultimate 3000 HPLC, Thermo Scientfic
Instrument type: LC-ESI-QFT
Ms type: MS2
Ion mode: POSITIVE
Ionization: ESI
Collision energy: 30eV
Column name: Acquity CSHC18
Retention time: 1.015 min
Base peak: 428.0367
Precursor m/z: 428.0367
Precursor type: [M+H]+
Precursor intensity: 170
m/z	relative intensity
59.0525	35
60.9052	33
72.6947	34
77.9639	32
85.2472	33
85.3511	34
87.5208	36
94.2857	41
105.4445	36
110.2094	35
118.3065	37
119.7437	34
130.1657	36
131.6289	38
136.062	999
137.6636	39
173.4845	40
179.9809	33
184.0003	40
344.284	37
404.0888	46
423.3689	40
