Mass spectrum: N-ALPHA-ACETYLLYSINE; LC-ESI-QFT; MS2; CE: 30eV;  [M+H]+
Name: N-ALPHA-ACETYLLYSINE
Class: NA
Formula: C8H16N2O3
Exact mass: 188.11609
SMILES: CC(=O)NC(CCCCN)C(O)=O
InChI: InChI=1S/C8H16N2O3/c1-6(11)10-7(8(12)13)4-2-3-5-9/h7H,2-5,9H2,1H3,(H,10,11)(H,12,13)
Instrument: Q-Exactive Orbitrap, Thermo Scientfic; Ultimate 3000 HPLC, Thermo Scientfic
Instrument type: LC-ESI-QFT
Ms type: MS2
Ion mode: POSITIVE
Ionization: ESI
Collision energy: 30eV
Column name: Acquity CSHC18
Retention time: 0.614 min
Base peak: 189.1234
Precursor m/z: 189.1234
Precursor type: [M+H]+
Precursor intensity: 160
m/z	relative intensity
52.4966	2
52.4979	3
56.0502	7
59.1517	2
60.0452	53
63.3622	3
65.2973	3
65.4136	3
67.055	14
67.4947	3
68.6861	3
69.0707	4
70.0659	3
70.1963	2
74.0246	3
74.8797	3
84.4867	3
85.0655	70
85.0849	57
85.8181	4
88.0749	3
90.9797	3
95.9869	3
98.9255	3
100.2103	2
101.108	130
102.0919	16
102.1114	4
107.5967	3
112.0762	41
121.9732	15
126.0918	424
127.0951	17
130.0867	999
130.0998	15
130.1059	104
131.0901	39
141.8237	4
144.1022	18
147.1132	632
148.1107	4
148.1165	24
150.9545	3
153.1027	214
154.0866	40
154.1059	5
171.1132	190
172.0972	284
172.1165	14
173.1007	4
177.3929	3
190.1201	5
190.1273	78
