Mass spectrum: Umbelliferone; LC-ESI-ITFT; MS2; CE: 45eV;  [M+H]+
Name: Umbelliferone
Class: coumarin
Formula: C9H6O3
Exact mass: 162.0317
SMILES: C1=CC(=CC2=C1C=CC(=O)O2)O
InChI: InChI=1S/C9H6O3/c10-7-3-1-6-2-4-9(11)12-8(6)5-7/h1-5,10H
Instrument: LTQ Orbitrap XL, Thermo Scientfic; Dionex Ultimate 300
Instrument type: LC-ESI-ITFT
Ms type: MS2
Ion mode: POSITIVE
Ionization: ESI
Collision energy: 45eV
Column name: Alltima C18
Retention time: 11.79 min
Base peak: 163.0388
Precursor m/z: 163.0388
Precursor type: [M+H]+
m/z	relative intensity
83.0035	614
107.934	537
134.3702	999
