Mass spectrum: 4-hydroxybenzoic acid; LC-ESI-QFT; MS2; CE: NCE_15_30_43;  [M-H]-
Name: 4-hydroxybenzoic acid
Class: NA
Formula: C7H6O3
Exact mass: 138.0317
SMILES: C1=CC(=CC=C1C(=O)O)O
InChI: InChI=1S/C7H6O3/c8-6-3-1-5(2-4-6)7(9)10/h1-4,8H,(H,9,10)
Instrument: Thermo_Qexactive_Plus
Instrument type: LC-ESI-QFT
Ms type: MS2
Ion mode: NEGATIVE
Ionization: ESI
Collision energy: NCE_15_30_43
Column name: Acquity CSHC18
Retention time: 2.584 min
Base peak: 137.0232
Precursor m/z: 137.0232
Precursor type: [M-H]-
Precursor intensity: 150944700
m/z	relative intensity
50.4562	29
50.8766	30
67.8731	31
71.6536	32
75.0808	32
77.2056	32
85.2581	32
85.936	33
86.8692	33
87.4884	34
93.0332	50
93.9376	67
94.0366	79
136.8622	210
137.0233	999
