Mass spectrum: L-Tryptophan, trimer; LC-ESI-QTOF; MS2; CE: 32.23;  [3M-H]-
Name: L-Tryptophan, trimer
Class: NA
Formula: C11H12N2O2
Exact mass: 204.0899
SMILES: C1=CC=C2C(=C1)C(=CN2)CC(C(=O)O)N
InChI: InChI=1S/C11H12N2O2/c12-9(11(14)15)5-7-6-13-10-4-2-1-3-8(7)10/h1-4,6,9,13H,5,12H2,(H,14,15)
Instrument: Bruker MicrOTOF-Q
Instrument type: LC-ESI-QTOF
Ms type: MS2
Ion mode: NEGATIVE
Ionization: ESI
Collision energy: 32.23
Column name: Acquity CSHC18
Retention time: NA
Base peak: 611.2624
Precursor m/z: 611.2624
Precursor type: [3M-H]-
m/z	relative intensity
116.05	669
117.0551	76
128.0484	16
130.0712	20
142.0679	171
159.0929	342
160.0939	53
170.1087	17
185.0649	16
186.0535	67
203.2001	999
205.0878	205
206.0953	23
