Mass spectrum: Helicin; LC-ESI-QTOF; MS2; CE: 0.00;  [M-H2O+H]+
Name: Helicin
Class: NA
Formula: C13H16O7
Exact mass: 284.0896
SMILES: C1=CC=C(C(=C1)C=O)OC2C(C(C(C(O2)CO)O)O)O
InChI: InChI=1S/C13H16O7/c14-5-7-3-1-2-4-8(7)19-13-12(18)11(17)10(16)9(6-15)20-13/h1-5,9-13,15-18H,6H2
Instrument: Bruker MicrOTOF-Q
Instrument type: LC-ESI-QTOF
Ms type: MS2
Ion mode: POSITIVE
Ionization: ESI
Collision energy: 0.00
Column name: Acquity CSHC18
Retention time: NA
Base peak: 267.0863
Precursor m/z: 267.0863
Precursor type: [M-H2O+H]+
m/z	relative intensity
121.0233	84
123.0419	999
124.0443	104
125.021	73
127.0321	41
133.0255	92
147.0456	68
157.0676	96
159.0406	194
173.0624	143
177.0528	89
201.0569	154
202.0595	78
203.0652	17
249.0739	65
267.0869	62
269.041	482
