Mass spectrum: phosphoenolpyruvate; LC-ESI-QTOF; MS2; CE: -10, -35, -60V;  [M-H]-
Name: phosphoenolpyruvate
Class: NA
Formula: C3H5O6P
Exact mass: 167.9824
SMILES: C=C(C(=O)O)OP(=O)(O)O
InChI: InChI=1S/C3H5O6P/c1-2(3(4)5)9-10(6,7)8/h1H2,(H,4,5)(H2,6,7,8)
Instrument: TripleToF 5600; Sciex
Instrument type: LC-ESI-QTOF
Ms type: MS2
Ion mode: NEGATIVE
Ionization: ESI
Collision energy: -10, -35, -60V
Column name: Acquity CSHC18
Retention time: 12.893 min
Base peak: 166.9756
Precursor m/z: 166.9756
Precursor type: [M-H]-
Precursor intensity: 175403.8
m/z	relative intensity
78.9595	999
166.9693	4
166.9785	17
