Mass spectrum: Cortexolone; LC-ESI-ITFT; MS2; CE: 100;  [M-H]-
Name: Cortexolone
Class: Lipids and lipid-like molecules; Steroids and steroid derivatives; Hydroxysteroids
Formula: C21H30O4
Exact mass: 346.21441
SMILES: [H][C@@]12CC[C@](O)(C(=O)CO)[C@@]1(C)CC[C@@]1([H])[C@@]2([H])CCC2=CC(=O)CC[C@]12C
InChI: InChI=1S/C21H30O4/c1-19-8-5-14(23)11-13(19)3-4-15-16(19)6-9-20(2)17(15)7-10-21(20,25)18(24)12-22/h11,15-17,22,25H,3-10,12H2,1-2H3/t15-,16+,17+,19+,20+,21+/m1/s1
Instrument: Thermo Scientific Q-Exactive Focus
Instrument type: LC-ESI-ITFT
Ms type: MS2
Ion mode: NEGATIVE
Ionization: ESI
Collision energy: 100
Column name: Acquity CSHC18
Retention time: 2.586 min
Base peak: 345.20712
Precursor m/z: 345.20712
Precursor type: [M-H]-
m/z	relative intensity
78.9577	999
103.1638	366
209.0117	357
211.138	365
263.1432	380
264.9704	374
291.6569	359
292.2784	379
326.0428	374
363.8519	384
