Mass spectrum: BIOTIN; LC-ESI-QTOF; MS2; CE: 40;  [M+H]+
Name: BIOTIN
Class: NA
Formula: C10H16N2O3S
Exact mass: 244.08816
SMILES: [H][C@]12CS[C@@H](CCCCC(O)=O)[C@@]1([H])NC(=O)N2
InChI: InChI=1S/C10H16N2O3S/c13-8(14)4-2-1-3-7-9-6(5-16-7)11-10(15)12-9/h6-7,9H,1-5H2,(H,13,14)(H2,11,12,15)/t6-,7-,9-/m0/s1
Instrument: Agilent 6530Â Q-TOF LC/MS
Instrument type: LC-ESI-QTOF
Ms type: MS2
Ion mode: POSITIVE
Ionization: ESI
Collision energy: 40
Column name: NA
Retention time: 0.200 min
Base peak: 245.09958
Precursor m/z: 245.09958
Precursor type: [M+H]+
Precursor intensity: 140.5
m/z	relative intensity
41.0461	126
42.0435	130
43.0321	131
44.9843	132
47.0014	138
53.0442	141
54.0381	142
55.0667	144
56.0534	144
59.0245	144
61.0136	146
65.0397	147
66.0325	148
67.0681	151
68.0597	153
69.0548	154
70.0287	156
71.9919	159
73.0117	159
74.0092	160
76.0245	161
77.0548	170
78.0339	171
79.0726	176
80.0515	179
81.0804	180
82.0456	180
83.0689	183
85.0286	184
91.0641	188
93.0684	200
94.0746	206
95.0862	212
97.0494	219
99.0327	227
100.0304	228
101.0158	230
103.0623	241
105.0881	245
106.0686	254
107.0803	268
108.0849	269
111.0452	282
112.0318	284
116.0557	290
117.0611	304
118.0678	356
121.0481	356
123.0482	359
125.0365	370
126.035	383
133.0927	398
137.0793	528
138.0169	537
139.0557	602
140.0137	634
151.0812	635
154.0757	698
156.0561	741
166.0703	763
199.0876	999
227.0858	126
