Mass spectrum: Glyceraldehyde; ESI-TOF; MS2; CE: 0.6458333;  [M+H]+
Name: Glyceraldehyde
Class: NA
Formula: C3H6O3
Exact mass: 90.03169
SMILES: OCC(O)C=O
InChI: InChI=1S/C3H6O3/c4-1-3(6)2-5/h1,3,5-6H,2H2
Instrument: waters xevo g2 TOF
Instrument type: ESI-TOF
Ms type: MS2
Ion mode: POSITIVE
Ionization: ESI
Collision energy: 0.6458333
Column name: Acquity CSHC18
Retention time: 0.576 min
Base peak: 91.03969
Precursor m/z: 91.03969
Precursor type: [M+H]+
m/z	relative intensity
83.0087	1
87.0452	1
89.9417	81
90.9489	48
92.0023	16
95.0084	130
97.0297	35
98.033	1
99.0104	999
100.0484	1
101.0079	1
102.093	26
103.0654	116
104.0135	166
109.0291	1
110.0134	561
110.5146	1
110.9764	258
111.9461	107
113.0207	27
114.994	178
115.9561	309
117.038	1
119.0189	91
120.96	9
126.0039	1
126.9939	730
127.9998	103
129.5087	1
131.019	26
131.9509	224
137.535	1
142.0398	1
143.0031	1
143.9601	129
144.5428	1
145.0035	108
146.0337	5
146.5409	1
147.5226	1
149.0214	1
154.0101	1
154.998	23
155.9736	1
158.0032	1
162.037	1
163.0163	1
164.0164	1
165.0132	1
171.9667	1
173.0249	1
174.9691	312
175.975	1
176.9704	100
178.966	1
185.9633	1
187.0803	41
188.0305	1
191.0413	1
195.4843	1
195.9944	1
199.0604	1
200.0458	1
200.5464	1
201.9775	1
203.0535	565
204.0146	82
204.9764	1
206.9808	1
208.9769	1
209.9286	1
211.8857	15
215.0237	1
216.0579	1
217.0684	84
217.9891	1
219.0523	1
221.0394	1
224.9886	1
233.001	1
235.0353	1
236.0829	1
237.0848	1
241.8877	1
245.0612	1
249.0951	1
275.0741	228
275.9929	1
282.8998	17
293.0928	29
294.0037	1
295.0073	1
296.0097	1
299.9051	1
302.0605	4
306.0068	1
307.1009	113
308.1051	1
309.1119	1
318.9186	1
339.1271	1
346.9201	1
360.9273	1
366.023	1
386.8741	1
388.9264	1
