Mass spectrum: 4-QUINOLINECARBOXYLATE; LC-ESI-QTOF; MS2; CE: 10;  [M+H]+
Name: 4-QUINOLINECARBOXYLATE
Class: NA
Formula: C10H7NO2
Exact mass: 173.04768
SMILES: C1=CC=C2C(=C1)C(=CC=N2)C(=O)O
InChI: InChI=1S/C10H7NO2/c12-10(13)8-5-6-11-9-4-2-1-3-7(8)9/h1-6H,(H,12,13)
Instrument: Agilent 6530Â Q-TOF LC/MS
Instrument type: LC-ESI-QTOF
Ms type: MS2
Ion mode: POSITIVE
Ionization: ESI
Collision energy: 10
Column name: NA
Retention time: 0.200 min
Base peak: 174.05588
Precursor m/z: 174.05588
Precursor type: [M+H]+
Precursor intensity: 113.5
m/z	relative intensity
130.0686	245
146.0656	289
174.0969	999
