Mass spectrum: isoquercetin; LC-ESI-ITFT; MS2; CE: 0.3;  [M-H]-
Name: isoquercetin
Class: flavonol glycosides
Formula: C21H20O12
Exact mass: 464.0955
SMILES: C1=CC(=C(C=C1C2=C(C(=O)C3=C(C=C(C=C3O2)O)O)OC4C(C(C(C(O4)CO)O)O)O)O)O
InChI: InChI=1S/C21H20O12/c22-6-13-15(27)17(29)18(30)21(32-13)33-20-16(28)14-11(26)4-8(23)5-12(14)31-19(20)7-1-2-9(24)10(25)3-7/h1-5,13,15,17-18,21-27,29-30H,6H2
Instrument: LTQ-Orbitrap XL hybrid mass spectrometer (Thermo Scientific)
Instrument type: LC-ESI-ITFT
Ms type: MS2
Ion mode: NEGATIVE
Ionization: ESI
Collision energy: 0.3
Column name: Acquity CSHC18
Retention time: 5.238 min
Base peak: 463.0877
Precursor m/z: 463.0877
Precursor type: [M-H]-
Precursor intensity: 18015810
m/z	relative intensity
132.6045	2
151.004	12
178.9985	7
271.0252	8
300.0276	226
300.947	5
300.9608	4
301.0351	999
301.1054	8
302.0384	31
302.5561	5
303.3194	5
343.0458	25
371.0502	2
