Mass spectrum: 2-Hydroxy-1-methoxy anthraquinone; LC-ESI-QFT; MS2; CE: 15,30,45 (NCE);  [M+H]+
Name: 2-Hydroxy-1-methoxy anthraquinone
Class: NA
Formula: C15H10O4
Exact mass: 254.0579
SMILES: COC1=C(O)C=CC2=C1C(=O)C1=CC=CC=C1C2=O
InChI: InChI=1S/C15H10O4/c1-19-15-11(16)7-6-10-12(15)14(18)9-5-3-2-4-8(9)13(10)17/h2-7,16H,1H3
Instrument: QE Focus, Thermo Scientfic; UPLC I-Class, Waters
Instrument type: LC-ESI-QFT
Ms type: MS2
Ion mode: POSITIVE
Ionization: ESI
Collision energy: 15,30,45 (NCE)
Column name: Acquity CSHC18
Retention time: 3.750 min
Base peak: 255.0649
Precursor m/z: 255.0649
Precursor type: [M+H]+
Precursor intensity: 5153554
m/z	relative intensity
66.8616	2
67.3469	2
71.866	2
78.7803	2
79.0547	3
83.0133	14
95.0132	3
99.8183	2
105.0336	5
112.2106	2
113.3092	2
115.7511	2
125.9803	2
143.0488	10
157.0647	3
171.0437	59
171.0805	3
181.0649	6
181.7455	2
185.0591	4
199.0388	237
199.0754	6
209.0599	3
213.0542	10
227.07	5
237.0544	13
255.0648	999
