Mass spectrum: Isoferulic acid; LC-ESI-QTOF; MS2; CE: 15.00;  [M-H2O+H]+
Name: Isoferulic acid
Class: NA
Formula: C10H10O4
Exact mass: 194.0579
SMILES: COC1=C(C=C(C=C1)C=CC(=O)O)O
InChI: InChI=1S/C10H10O4/c1-14-9-4-2-7(6-8(9)11)3-5-10(12)13/h2-6,11H,1H3,(H,12,13)
Instrument: Bruker MicrOTOF-Q
Instrument type: LC-ESI-QTOF
Ms type: MS2
Ion mode: POSITIVE
Ionization: ESI
Collision energy: 15.00
Column name: Acquity CSHC18
Retention time: NA
Base peak: 177.0546
Precursor m/z: 177.0546
Precursor type: [M-H2O+H]+
m/z	relative intensity
117.0313	33
134.0348	40
145.028	40
146.0316	41
149.059	50
150.063	76
162.0308	109
163.0381	360
177.0548	395
178.0582	999
