Mass spectrum: MELATONIN; LC-ESI-QTOF; MS2; CE: 20;  [M+H]+
Name: MELATONIN
Class: NA
Formula: C13H16N2O2
Exact mass: 232.12118
SMILES: COC1=CC2=C(NC=C2CCNC(C)=O)C=C1
InChI: InChI=1S/C13H16N2O2/c1-9(16)14-6-5-10-8-15-13-4-3-11(17-2)7-12(10)13/h3-4,7-8,15H,5-6H2,1-2H3,(H,14,16)
Instrument: Agilent 6530Â Q-TOF LC/MS
Instrument type: LC-ESI-QTOF
Ms type: MS2
Ion mode: POSITIVE
Ionization: ESI
Collision energy: 20
Column name: NA
Retention time: 0.200 min
Base peak: 233.13086
Precursor m/z: 233.13086
Precursor type: [M+H]+
Precursor intensity: 140.5
m/z	relative intensity
41.0396	27
43.0255	29
44.0483	29
52.0337	30
60.045	31
77.0513	32
78.0481	32
86.0746	33
89.0346	33
91.0686	33
103.0672	33
104.0675	34
105.0696	34
107.0498	35
108.0453	36
115.0723	38
116.0611	40
117.0883	40
118.0764	40
119.0696	40
127.0755	47
128.0692	48
129.0667	50
130.104	52
131.142	62
131.4344	66
132.066	76
133.0657	80
140.0538	92
142.0891	94
143.2173	98
143.7094	106
144.0944	107
145.0626	110
146.0964	113
147.1026	116
148.0738	122
156.0736	127
157.074	129
158.0776	129
159.6421	144
162.1094	164
167.076	165
173.1115	216
173.8361	222
174.817	248
175.8101	307
176.156	329
186.07	522
188.116	681
198.1144	682
201.0779	830
216.1239	999
