Mass spectrum: 16-phenyl tetranor Prostaglandin E2; ESI-TOF; MS2; CE: 6.0000000;  [M+H]+
Name: 16-phenyl tetranor Prostaglandin E2
Class: NA
Formula: C22H28O5
Exact mass: 372.19367
SMILES: O=C1[C@H](C/C=C\CCCC(O)=O)[C@@H](/C=C/[C@@H](O)CC2=CC=CC=C2)[C@H](O)C1
InChI: InChI=1S/C22H28O5/c23-17(14-16-8-4-3-5-9-16)12-13-19-18(20(24)15-21(19)25)10-6-1-2-7-11-22(26)27/h1,3-6,8-9,12-13,17-19,21,23,25H,2,7,10-11,14-15H2,(H,26,27)/b6-1-,13-12+/t17-,18-,19-,21-/m1/s1
Instrument: waters xevo g2 TOF
Instrument type: ESI-TOF
Ms type: MS2
Ion mode: POSITIVE
Ionization: ESI
Collision energy: 6.0000000
Column name: Acquity CSHC18
Retention time: 3.183 min
Base peak: 373.20167
Precursor m/z: 373.20167
Precursor type: [M+H]+
m/z	relative intensity
79.0537	1
91.0554	1
105.071	1
115.0551	1
117.071	175
121.0651	1
123.0802	1
128.0642	1
129.0703	1
131.0875	11
141.0707	8
143.087	31
145.1025	1
147.0831	1
154.0761	1
155.0867	1
157.1009	1
161.0975	1
165.0709	1
166.0768	1
167.0855	9
169.1021	18
171.0811	34
173.097	1
179.0886	3
181.1018	12
185.0987	6
187.1103	1
189.0912	41
191.0839	1
192.0907	1
193.1002	1
195.0787	1
197.5723	11
201.1261	9
203.1069	23
205.1025	1
207.1165	39
209.0946	14
215.1061	34
217.1025	1
223.1124	20
231.0932	2
233.116	46
235.1126	79
236.1165	10
245.1231	1
247.1487	27
249.1662	31
251.1264	26
253.1239	32
255.1238	7
259.1487	1
265.1598	61
266.1639	7
267.1701	15
273.1635	33
275.1437	15
278.0409	1
282.0324	1
283.1672	52
284.1681	11
285.1824	17
291.1753	34
293.1534	68
294.1587	9
295.1666	24
301.1591	130
302.16	21
309.1904	28
311.165	43
319.1692	921
320.173	213
335.0564	25
337.1808	999
338.1838	244
339.187	25
355.191	403
356.1938	72
374.1633	113
374.6656	49
375.1267	1
