Mass spectrum: C24:1 Ceramide (d18:1/24:1(15Z)); ESI-TOF; MS2; CE: 0.6458333;  [M+H]+
Name: C24:1 Ceramide (d18:1/24:1(15Z))
Class: NA
Formula: C42H81NO3
Exact mass: 647.62165
SMILES: [H]OC([H])([H])C([H])(N([H])C(=O)C([H])([H])C([H])([H])C([H])([H])C([H])([H])C([H])([H])C([H])([H])C([H])([H])C([H])([H])C([H])([H])C([H])([H])C([H])([H])C([H])([H])C([H])([H])C([H])=C([H])C([H])([H])C([H])([H])C([H])([H])C([H])([H])C([H])([H])C([H])([H])C([H])([H])C([H])([H])[H])C([H])(O[H])C([H])=C([H])C([H])([H])C([H])([H])C([H])([H])C([H])([H])C([H])([H])C([H])([H])C([H])([H])C([H])([H])C([H])([H])C([H])([H])C([H])([H])C([H])([H])C([H])([H])[H]
InChI: InChI=1S/C42H81NO3/c1-3-5-7-9-11-13-15-17-18-19-20-21-22-23-24-26-28-30-32-34-36-38-42(46)43-40(39-44)41(45)37-35-33-31-29-27-25-16-14-12-10-8-6-4-2/h17-18,35,37,40-41,44-45H,3-16,19-34,36,38-39H2,1-2H3,(H,43,46)
Instrument: waters xevo g2 TOF
Instrument type: ESI-TOF
Ms type: MS2
Ion mode: POSITIVE
Ionization: ESI
Collision energy: 0.6458333
Column name: Acquity CSHC18
Retention time: 12.168 min
Base peak: 648.62965
Precursor m/z: 648.62965
Precursor type: [M+H]+
m/z	relative intensity
90.9775	8
211.2088	6
283.2834	33
288.9221	6
319.7814	28
325.7817	44
326.2841	11
366.3749	10
430.3369	46
431.3388	8
446.3074	23
447.3106	4
600.6072	32
601.6099	7
612.6072	130
613.6092	53
614.6117	9
630.6185	999
631.6217	479
632.6262	57
633.6247	17
648.6291	282
649.6323	135
