Mass spectrum: Anhydrovinblastine; ESI-QTOF; MS2; CE: 30 eV;  [M+H]+
Name: Anhydrovinblastine
Class: NA
Formula: C46H56N4O8
Exact mass: 792.4098
SMILES: CCC1=CC2(CC(C=3C=C4C(=CC3OC)N(C)C5(C64CCN7CC=CC(CC)(C67[H])C(C5(C(=O)OC)O)(OC(C)=O)[H])[H])(C8=C(CCN(C1)C2)C9=CC=CC=C9N8)C(=O)OC)[H]
InChI: InChI=1S/C46H56N4O8/c1-8-28-21-29-24-45(41(52)56-6,37-31(15-19-49(25-28)26-29)30-13-10-11-14-34(30)47-37)33-22-32-35(23-36(33)55-5)48(4)39-44(32)17-20-50-18-12-16-43(9-2,38(44)50)40(58-27(3)51)46(39,54)42(53)57-7/h10-14,16,21-23,29,38-40,47,54H,8-9,15,17-20,24-26H2,1-7H3
Instrument: Synapt (HDMS 1st gen)
Instrument type: ESI-QTOF
Ms type: MS2
Ion mode: POSITIVE
Ionization: ESI
Collision energy: 30 eV
Column name: Acquity CSHC18
Retention time: 17.088 min
Base peak: 793.4160
Precursor m/z: 793.4160
Precursor type: [M+H]+
Precursor intensity: 1038.97
m/z	relative intensity
337.1904	44
793.4171	999
