Mass spectrum: 4-QUINOLINECARBOXYLATE; LC-ESI-QFT; MS2; CE: 30eV;  [M+H]+
Name: 4-QUINOLINECARBOXYLATE
Class: NA
Formula: C10H7NO2
Exact mass: 173.04768
SMILES: C1=CC=C2C(=C1)C(=CC=N2)C(=O)O
InChI: InChI=1S/C10H7NO2/c12-10(13)8-5-6-11-9-4-2-1-3-7(8)9/h1-6H,(H,12,13)
Instrument: Q-Exactive Orbitrap, Thermo Scientfic; Ultimate 3000 HPLC, Thermo Scientfic
Instrument type: LC-ESI-QFT
Ms type: MS2
Ion mode: POSITIVE
Ionization: ESI
Collision energy: 30eV
Column name: Acquity CSHC18
Retention time: 1.225 min
Base peak: 174.0550
Precursor m/z: 174.0550
Precursor type: [M+H]+
Precursor intensity: 175
m/z	relative intensity
51.1686	6
51.8903	7
54.556	7
54.5916	8
54.7392	7
70.5147	8
70.6517	9
76.1006	9
81.8847	10
90.7368	8
95.3027	8
103.0546	18
108.442	8
115.0494	9
115.3365	9
128.0496	44
129.0571	20
129.7151	9
130.0651	157
146.06	285
156.4125	9
165.2176	9
175.0522	43
175.0582	999
185.7424	10
