Mass spectrum: S-ADENOSYLHOMOCYSTEINE; LC-ESI-QTOF; MS2; CE: 20;  [M-H]-
Name: S-ADENOSYLHOMOCYSTEINE
Class: NA
Formula: C14H20N6O5S
Exact mass: 384.12159
SMILES: N[C@@H](CCSC[C@H]1O[C@H]([C@H](O)[C@@H]1O)N1C=NC2=C(N)N=CN=C12)C(O)=O
InChI: InChI=1S/C14H20N6O5S/c15-6(14(23)24)1-2-26-3-7-9(21)10(22)13(25-7)20-5-19-8-11(16)17-4-18-12(8)20/h4-7,9-10,13,21-22H,1-3,15H2,(H,23,24)(H2,16,17,18)/t6-,7+,9+,10+,13+/m0/s1
Instrument: Agilent 6530Â Q-TOF LC/MS
Instrument type: LC-ESI-QTOF
Ms type: MS2
Ion mode: NEGATIVE
Ionization: ESI
Collision energy: 20
Column name: NA
Retention time: 0.200 min
Base peak: 383.10823
Precursor m/z: 383.10823
Precursor type: [M-H]-
Precursor intensity: 185
m/z	relative intensity
134.069	104
383.1001	999
