Mass spectrum: O-ACETYLCARNITINE; LC-ESI-QFT; MS2; CE: 30eV;  [M+H]+
Name: O-ACETYLCARNITINE
Class: NA
Formula: C9H17NO4
Exact mass: 203.11576
SMILES: CC(=O)OC(CC([O-])=O)C[N+](C)(C)C
InChI: InChI=1S/C9H17NO4/c1-7(11)14-8(5-9(12)13)6-10(2,3)4/h8H,5-6H2,1-4H3
Instrument: Q-Exactive Orbitrap, Thermo Scientfic; Ultimate 3000 HPLC, Thermo Scientfic
Instrument type: LC-ESI-QFT
Ms type: MS2
Ion mode: POSITIVE
Ionization: ESI
Collision energy: 30eV
Column name: Acquity CSHC18
Retention time: 0.724 min
Base peak: 204.1230
Precursor m/z: 204.1230
Precursor type: [M+H]+
Precursor intensity: 140
m/z	relative intensity
52.5881	19
54.3238	17
57.0344	46
58.0657	32
61.085	33
66.5413	20
69.5166	22
74.2094	23
77.9147	23
84.553	21
86.0325	498
90.7514	30
110.4972	22
112.2341	25
125.5434	23
136.5488	22
137.3062	23
144.1023	942
146.0534	206
156.562	26
199.0942	25
204.3839	26
205.1272	999
205.8869	21
