Mass spectrum: Shikimic acid; LC-ESI-QTOF; MS2; CE: 10;  [M-H]-
Name: Shikimic acid
Class: NA
Formula: C7H10O5
Exact mass: 174.05282
SMILES: C1C(C(C(C=C1C(=O)O)O)O)O
InChI: InChI=1S/C7H10O5/c8-4-1-3(7(11)12)2-5(9)6(4)10/h1,4-6,8-10H,2H2,(H,11,12)
Instrument: impact II
Instrument type: LC-ESI-QTOF
Ms type: MS2
Ion mode: NEGATIVE
Ionization: ESI
Collision energy: 10
Column name: Acquity CSHC18
Retention time: 1.842 min
Base peak: 173.04550
Precursor m/z: 173.04550
Precursor type: [M-H]-
m/z	relative intensity
99.027	999
