Mass spectrum: Cytosine; LC-ESI-QTOF; MS2; CE: 15.00;  [M+H]+
Name: Cytosine
Class: NA
Formula: C4H5N3O
Exact mass: 111.0433
SMILES: C1=C(NC(=O)N=C1)N
InChI: InChI=1S/C4H5N3O/c5-3-1-2-6-4(8)7-3/h1-2H,(H3,5,6,7,8)
Instrument: Bruker MicrOTOF-Q
Instrument type: LC-ESI-QTOF
Ms type: MS2
Ion mode: POSITIVE
Ionization: ESI
Collision energy: 15.00
Column name: Acquity CSHC18
Retention time: NA
Base peak: 112.0505
Precursor m/z: 112.0505
Precursor type: [M+H]+
m/z	relative intensity
95.0057	9
97.4878	7
112.0481	999
113.0479	121
115.6605	25
