Mass spectrum: Esculetin; LC-ESI-ITFT; MS2; CE: 45eV;  [M-H]-
Name: Esculetin
Class: coumarin
Formula: C9H6O4
Exact mass: 178.0266
SMILES: C1=CC(=O)OC2=CC(=C(C=C21)O)O
InChI: InChI=1S/C9H6O4/c10-6-3-5-1-2-9(12)13-8(5)4-7(6)11/h1-4,10-11H
Instrument: LTQ Orbitrap XL, Thermo Scientfic; Dionex Ultimate 300
Instrument type: LC-ESI-ITFT
Ms type: MS2
Ion mode: NEGATIVE
Ionization: ESI
Collision energy: 45eV
Column name: Alltima C18
Retention time: 13.46 min
Base peak: 177.0183
Precursor m/z: 177.0183
Precursor type: [M-H]-
m/z	relative intensity
88.8827	999
108.9655	136
