Mass spectrum: DEOXYGUANOSINE-MONOPHOSPHATE; LC-ESI-QTOF; MS2; CE: 10;  [M+H]+
Name: DEOXYGUANOSINE-MONOPHOSPHATE
Class: NA
Formula: C10H14N5O7P
Exact mass: 347.0631
SMILES: NC1=NC2=C(N=CN2[C@H]2C[C@H](O)[C@@H](COP(O)(O)=O)O2)C(=O)N1
InChI: InChI=1S/C10H14N5O7P/c11-10-13-8-7(9(17)14-10)12-3-15(8)6-1-4(16)5(22-6)2-21-23(18,19)20/h3-6,16H,1-2H2,(H2,18,19,20)(H3,11,13,14,17)/t4-,5+,6+/m0/s1
Instrument: Agilent 6530Â Q-TOF LC/MS
Instrument type: LC-ESI-QTOF
Ms type: MS2
Ion mode: POSITIVE
Ionization: ESI
Collision energy: 10
Column name: NA
Retention time: 0.200 min
Base peak: 348.06968
Precursor m/z: 348.06968
Precursor type: [M+H]+
Precursor intensity: 35.5
m/z	relative intensity
81.0351	105
152.0553	999
