Mass spectrum: N-Glycolylneuraminic acid; LC-ESI-QTOF; MS2; CE: 30;  [M+H]+
Name: N-Glycolylneuraminic acid
Class: Neuraminic acids
Formula: C11H19NO10
Exact mass: 325.10090
SMILES: OC[C@@H](O)[C@@H](O)[C@@H]1O[C@@](O)(C[C@H](O)[C@H]1NC(=O)CO)C(O)=O
InChI: InChI=1S/C11H19NO10/c13-2-5(16)8(18)9-7(12-6(17)3-14)4(15)1-11(21,22-9)10(19)20/h4-5,7-9,13-16,18,21H,1-3H2,(H,12,17)(H,19,20)/t4-,5+,7+,8+,9+,11-/m0/s1
Instrument: impact II
Instrument type: LC-ESI-QTOF
Ms type: MS2
Ion mode: POSITIVE
Ionization: ESI
Collision energy: 30
Column name: Acquity CSHC18
Retention time: 1.789 min
Base peak: 326.10780
Precursor m/z: 326.10780
Precursor type: [M+H]+
m/z	relative intensity
45.0344	143
76.0401	316
84.0444	143
94.029	127
95.0491	122
96.0436	104
97.0288	95
98.0608	113
103.0387	142
107.0501	116
109.0284	167
110.0601	148
112.0394	438
121.0287	999
122.0336	104
122.0592	114
123.0443	365
124.039	107
125.0235	200
126.0552	104
128.0341	104
130.0499	508
138.0555	127
142.0498	410
150.0548	248
151.0394	403
152.035	250
154.0492	222
155.0336	120
166.0489	181
167.034	483
168.0663	148
169.0492	121
172.0601	226
178.0505	183
179.0339	297
188.0551	117
196.0605	198
197.0443	577
198.0405	143
214.0705	139
