Mass spectrum: DETHIOBIOTIN; LC-ESI-QTOF; MS2; CE: 20;  [M+H]+
Name: DETHIOBIOTIN
Class: NA
Formula: C10H18N2O3
Exact mass: 214.13174
SMILES: C[C@@H]1NC(=O)N[C@@H]1CCCCCC(O)=O
InChI: InChI=1S/C10H18N2O3/c1-7-8(12-10(15)11-7)5-3-2-4-6-9(13)14/h7-8H,2-6H2,1H3,(H,13,14)(H2,11,12,15)/t7-,8+/m0/s1
Instrument: Agilent 6530Â Q-TOF LC/MS
Instrument type: LC-ESI-QTOF
Ms type: MS2
Ion mode: POSITIVE
Ionization: ESI
Collision energy: 20
Column name: NA
Retention time: 0.200 min
Base peak: 215.14061
Precursor m/z: 215.14061
Precursor type: [M+H]+
Precursor intensity: 140.5
m/z	relative intensity
41.0595	23
42.0459	24
43.0571	24
44.0576	24
44.2842	25
46.0326	25
53.0532	25
54.0408	26
55.0673	26
56.0734	26
57.0692	27
58.0889	27
59.0539	27
61.0523	28
65.0427	28
67.1475	29
67.4378	29
68.0628	29
69.2235	30
69.5795	30
70.0646	31
70.3056	32
71.0645	33
72.0778	34
77.0582	34
79.0837	35
80.0627	39
81.0839	42
81.5102	45
82.0699	46
83.0829	46
84.0915	46
85.056	46
86.0818	48
88.0766	51
91.0788	56
93.0971	59
93.3162	62
94.0951	63
95.212	64
95.5153	76
95.6156	77
95.8937	79
96.0931	85
97.0759	86
98.0893	98
99.1022	101
99.7966	104
100.0888	106
106.0638	113
107.0933	114
108.1069	116
109.1842	119
109.6587	123
109.8509	125
110.1093	127
110.353	136
111.1219	151
111.3607	155
111.6179	158
112.1089	163
113.088	164
114.0927	170
116.057	171
117.081	175
118.0722	198
119.1207	209
121.0929	228
122.0756	245
123.0654	263
124.1066	269
125.0987	285
126.1425	288
134.111	307
135.0984	314
136.213	325
136.5076	327
137.121	338
137.5105	368
138.0824	370
140.9151	413
149.0713	454
150.0877	456
151.1357	470
152.1272	482
153.1291	499
154.1698	539
162.1078	545
163.0761	553
164.0986	560
169.1512	634
172.1421	660
179.673	670
180.4281	677
180.5321	722
180.6592	816
196.2293	999
197.8181	23
198.8866	24
215.1581	24
