Mass spectrum: (20R)-22,26-Epimino-5alpha-cholestan-3beta,16alpha,20-triol; APCI-ITFT; MS2; CE: 70 HCD;  [M+H]+
Name: (20R)-22,26-Epimino-5alpha-cholestan-3beta,16alpha,20-triol
Class: NA
Formula: C27H47NO3
Exact mass: 433.35559
SMILES: CC(CN1)CCC1[C@](C)(O)[C@H]2[C@H](O)C[C@@]3([H])[C@]4([H])CC[C@@]5([H])C[C@@H](O)CC[C@]5(C)[C@@]4([H])CC[C@]23C
InChI: InChI=1S/C27H47NO3/c1-16-5-8-23(28-15-16)27(4,31)24-22(30)14-21-19-7-6-17-13-18(29)9-11-25(17,2)20(19)10-12-26(21,24)3/h16-24,28-31H,5-15H2,1-4H3/t16?,17-,18-,19+,20-,21-,22+,23?,24-,25-,26-,27-/m0/s1
Instrument: Orbitrap Elite
Instrument type: APCI-ITFT
Ms type: MS2
Ion mode: POSITIVE
Ionization: APCI
Collision energy: 70 HCD
Column name: Acquity CSHC18
Retention time: 0.063 min
Base peak: 434.36350
Precursor m/z: 434.36350
Precursor type: [M+H]+
Precursor intensity: 51180.57
m/z	relative intensity
53.1429	415
55.4777	410
58.5553	402
62.4181	425
66.6389	453
79.2146	432
102.4568	455
105.0703	999
108.9848	421
113.3881	494
113.5535	502
114.8637	515
118.9288	423
128.4259	481
129.4503	519
130.132	545
130.7168	474
156.9815	515
171.0305	464
173.1312	492
206.0819	513
208.0622	735
229.778	485
304.9456	485
330.7693	472
331.4548	592
398.152	506
410.4937	483
420.5046	494
