Mass spectrum: Quinic acid; LC-ESI-QTOF; MS2; CE: 30;  [M-H]-
Name: Quinic acid
Class: NA
Formula: C7H12O6
Exact mass: 192.06339
SMILES: C1C(C(C(CC1(C(=O)O)O)O)O)O
InChI: InChI=1S/C7H12O6/c8-3-1-7(13,6(11)12)2-4(9)5(3)10/h3-5,8-10,13H,1-2H2,(H,11,12)
Instrument: impact II
Instrument type: LC-ESI-QTOF
Ms type: MS2
Ion mode: NEGATIVE
Ionization: ESI
Collision energy: 30
Column name: Acquity CSHC18
Retention time: 1.847 min
Base peak: 191.05600
Precursor m/z: 191.05600
Precursor type: [M-H]-
m/z	relative intensity
85.0295	999
87.0087	182
93.0345	645
108.0214	147
109.0292	225
127.0399	129
191.0557	178
