Mass spectrum: Coumestrol; LC-ESI-QTOF; MS2; CE: 15.00;  [M+H]+
Name: Coumestrol
Class: NA
Formula: C15H8O5
Exact mass: 268.0372
SMILES: C1=CC2=C(C=C1O)OC3=C2C(=O)OC4=C3C=CC(=C4)O
InChI: InChI=1S/C15H8O5/c16-7-1-3-9-11(5-7)19-14-10-4-2-8(17)6-12(10)20-15(18)13(9)14/h1-6,16-17H
Instrument: Bruker MicrOTOF-Q
Instrument type: LC-ESI-QTOF
Ms type: MS2
Ion mode: POSITIVE
Ionization: ESI
Collision energy: 15.00
Column name: Acquity CSHC18
Retention time: NA
Base peak: 269.0444
Precursor m/z: 269.0444
Precursor type: [M+H]+
m/z	relative intensity
197.0595	17
213.0542	36
225.0545	67
241.0493	73
242.0534	111
268.0365	141
269.0448	278
270.0479	999
