Mass spectrum: Glycocholic acid; LC-ESI-ITFT; MS2; CE: 30;  [M-H]-
Name: Glycocholic acid
Class: Lipids and lipid-like molecules; Steroids and steroid derivatives; Bile acids, alcohols and derivatives
Formula: C26H43NO6
Exact mass: 465.30904
SMILES: CC(CCC(=O)NCC(O)=O)C1CCC2C3C(O)CC4CC(O)CCC4(C)C3CC(O)C12C
InChI: InChI=1S/C26H43NO6/c1-14(4-7-22(31)27-13-23(32)33)17-5-6-18-24-19(12-21(30)26(17,18)3)25(2)9-8-16(28)10-15(25)11-20(24)29/h14-21,24,28-30H,4-13H2,1-3H3,(H,27,31)(H,32,33)
Instrument: Thermo Scientific Q-Exactive Focus
Instrument type: LC-ESI-ITFT
Ms type: MS2
Ion mode: NEGATIVE
Ionization: ESI
Collision energy: 30
Column name: Acquity CSHC18
Retention time: 0.929 min
Base peak: 464.30176
Precursor m/z: 464.30176
Precursor type: [M-H]-
m/z	relative intensity
74.0235	305
402.3007	22
420.3116	4
446.2899	1
464.301	999
