Mass spectrum: Celereoin; LC-ESI-ITFT; MS2; CE: 45eV;  [M-H]-
Name: Celereoin
Class: coumarin
Formula: C14H14O5
Exact mass: 262.0841
SMILES: CC(C)(C1CC2=C(O1)C=C3C(=C2O)C=CC(=O)O3)O
InChI: InChI=1S/C14H14O5/c1-14(2,17)11-5-8-10(18-11)6-9-7(13(8)16)3-4-12(15)19-9/h3-4,6,11,16-17H,5H2,1-2H3
Instrument: LTQ Orbitrap XL, Thermo Scientfic; Dionex Ultimate 300
Instrument type: LC-ESI-ITFT
Ms type: MS2
Ion mode: NEGATIVE
Ionization: ESI
Collision energy: 45eV
Column name: Alltima C18
Retention time: 20.34 min
Base peak: 261.0751
Precursor m/z: 261.0751
Precursor type: [M-H]-
m/z	relative intensity
175.0982	126
177.064	999
199.1734	61
231.1861	27
