Mass spectrum: Ginkgolide A; LC-ESI-QFT; MS2; CE: 15,30,45 (NCE);  [M+NH4]+
Name: Ginkgolide A
Class: NA
Formula: C20H24O9
Exact mass: 408.1420
SMILES: CC1C(=O)OC2CC34C5CC(C(C)(C)C)C33C(O)C(=O)OC3OC4(C(=O)O5)C12O
InChI: InChI=1S/C20H24O9/c1-7-12(22)26-10-6-17-9-5-8(16(2,3)4)18(17)11(21)13(23)28-15(18)29-20(17,14(24)27-9)19(7,10)25/h7-11,15,21,25H,5-6H2,1-4H3
Instrument: QE Focus, Thermo Scientfic; UPLC I-Class, Waters
Instrument type: LC-ESI-QFT
Ms type: MS2
Ion mode: POSITIVE
Ionization: ESI
Collision energy: 15,30,45 (NCE)
Column name: Acquity CSHC18
Retention time: 2.071 min
Base peak: 426.1758
Precursor m/z: 426.1758
Precursor type: [M+NH4]+
Precursor intensity: 1337635000
m/z	relative intensity
52.7074	8
62.1615	8
63.9497	9
64.5339	9
65.5682	9
68.1218	12
91.4286	11
95.086	23
97.688	11
113.096	26
187.0759	14
206.967	11
227.1435	12
237.128	20
249.0758	79
253.1211	20
255.137	26
266.8775	11
271.0986	11
271.1318	25
273.1126	16
281.1165	24
283.1331	22
299.1293	51
301.1435	22
317.139	81
319.1552	41
327.1222	65
329.1385	25
345.1327	161
347.1493	19
355.1163	14
361.174	13
363.1438	83
373.1291	57
391.1388	51
409.1485	305
426.1757	999
