Mass spectrum: Methyl benzoate; LC-ESI-ITFT; MS2; CE: 40;  [M+H]+
Name: Methyl benzoate
Class: Benzenoids; Benzene and substituted derivatives; Benzoic acids and derivatives
Formula: C8H8O2
Exact mass: 136.05243
SMILES: COC(=O)C1=CC=CC=C1
InChI: InChI=1S/C8H8O2/c1-10-8(9)7-5-3-2-4-6-7/h2-6H,1H3
Instrument: Thermo Scientific Q-Exactive Focus
Instrument type: LC-ESI-ITFT
Ms type: MS2
Ion mode: POSITIVE
Ionization: ESI
Collision energy: 40
Column name: Acquity CSHC18
Retention time: 1.464 min
Base peak: 137.05971
Precursor m/z: 137.05971
Precursor type: [M+H]+
m/z	relative intensity
51.0236	841
53.0392	546
60.5205	525
65.0391	643
67.9354	762
77.039	371
79.0547	349
80.0499	348
95.0495	999
121.0843	410
