Mass spectrum: H-Leu-Pro-OH; LC-ESI-QTOF; MS2; CE: 15.00;  [M-H]-
Name: H-Leu-Pro-OH
Class: NA
Formula: C11H20N2O3
Exact mass: 228.1474
SMILES: CC(C)CC(C(=O)N1CCCC1C(=O)O)N
InChI: InChI=1S/C11H20N2O3/c1-7(2)6-8(12)10(14)13-5-3-4-9(13)11(15)16/h7-9H,3-6,12H2,1-2H3,(H,15,16)
Instrument: Bruker MicrOTOF-Q
Instrument type: LC-ESI-QTOF
Ms type: MS2
Ion mode: NEGATIVE
Ionization: ESI
Collision energy: 15.00
Column name: Acquity CSHC18
Retention time: NA
Base peak: 227.1401
Precursor m/z: 227.1401
Precursor type: [M-H]-
m/z	relative intensity
47.45	25
49.72	23
55.85	21
58.71	21
60	43
61.98	19
65.22	28
66.65	27
68.45	27
68.93	19
69.65	19
70.22	22
72.84	37
73.7	27
74.12	16
74.58	26
86.74	26
89.76	27
91.97	27
94.58	18
96.58	27
104.16	17
105.19	27
105.42	27
106.43	24
108.18	19
110.54	31
112.08	38
114.06	999
114.42	22
115.05	51
133.16	24
133.49	17
185.3	17
188.43	22
207.12	43
209.12	68
210.13	19
212.6	28
226.85	19
227.14	223
228.13	25
229.13	23
252.24	16
270.21	16
289.86	27
349.06	19
370.54	19
396.79	16
407.63	16
412.1	27
533.45	25
552.73	16
630.61	21
643.6	30
853.64	16
