Mass spectrum: Creatine; LC-ESI-ITFT; MS2; CE: 20;  [M+H]+
Name: Creatine
Class: Organic acids and derivatives; Carboxylic acids and derivatives; Amino acids, peptides, and analogues
Formula: C4H9N3O2
Exact mass: 131.06948
SMILES: CN(CC(O)=O)C(N)=N
InChI: InChI=1S/C4H9N3O2/c1-7(4(5)6)2-3(8)9/h2H2,1H3,(H3,5,6)(H,8,9)
Instrument: Thermo Scientific Q-Exactive Focus
Instrument type: LC-ESI-ITFT
Ms type: MS2
Ion mode: POSITIVE
Ionization: ESI
Collision energy: 20
Column name: Acquity CSHC18
Retention time: 0.631 min
Base peak: 132.07675
Precursor m/z: 132.07675
Precursor type: [M+H]+
m/z	relative intensity
54.4519	14
79.4425	13
87.0557	115
87.0795	56
90.0554	999
92.5226	21
106.0135	12
114.0665	22
122.7641	13
132.0768	81
