Mass spectrum: Mannitol; ESI-TOF; MS2; CE: 6.0000000;  [M+H]+
Name: Mannitol
Class: NA
Formula: C6H14O6
Exact mass: 182.07904
SMILES: OCC(O)C(O)C(O)C(O)CO
InChI: InChI=1S/C6H14O6/c7-1-3(9)5(11)6(12)4(10)2-8/h3-12H,1-2H2
Instrument: waters xevo g2 TOF
Instrument type: ESI-TOF
Ms type: MS2
Ion mode: POSITIVE
Ionization: ESI
Collision energy: 6.0000000
Column name: Acquity CSHC18
Retention time: 0.558 min
Base peak: 183.08704
Precursor m/z: 183.08704
Precursor type: [M+H]+
m/z	relative intensity
69.0342	114
83.0498	189
85.029	54
96.9614	203
99.0444	135
111.0328	449
113.9643	588
117.0549	94
124.9564	20
129.0528	964
139.5193	11
139.9597	53
140.5411	11
141.9592	999
144.973	3
147.0325	754
148.0689	49
156.0367	24
159.9693	17
160.9904	12
165.0761	754
167.9727	10
169.9665	56
170.978	9
173.9615	191
180.0318	6
181.9669	32
183.0867	399
184.0701	14
