Mass spectrum: Costunolide; LC-ESI-ITFT; MS2; CE: 50eV;  [M+H]+
Name: Costunolide
Class: Sesquiterpenelactone; Germacrolide
Formula: C15H20O2
Exact mass: 232.1463
SMILES: C/C/1=C\CC/C(=C/[C@@H]2[C@@H](CC1)C(=C)C(=O)O2)/C
InChI: InChI=1S/C15H20O2/c1-10-5-4-6-11(2)9-14-13(8-7-10)12(3)15(16)17-14/h5,9,13-14H,3-4,6-8H2,1-2H3/b10-5+,11-9+/t13-,14+/m0/s1
Instrument: Q Exactive Plus, ThermoFisher Scientific
Instrument type: LC-ESI-ITFT
Ms type: MS2
Ion mode: POSITIVE
Ionization: ESI
Collision energy: 50eV
Column name: Acquity CSHC18
Retention time: 11.888 min
Base peak: 233.1532
Precursor m/z: 233.1532
Precursor type: [M+H]+
Precursor intensity: 3955935000
m/z	relative intensity
54.1087	9
67.055	10
69.0711	9
70.5312	43
72.5699	10
79.0549	15
81.0708	141
86.6559	11
91.0553	37
93.07	101
95.0859	138
105.0701	143
107.0852	47
109.0651	12
109.1018	36
117.0707	35
119.0859	60
121.1017	23
125.0602	12
131.085	166
133.1006	51
135.1171	12
137.0594	15
139.075	14
143.0845	10
145.1008	188
147.1174	53
151.0746	39
159.0812	18
159.117	94
161.1316	97
163.0752	16
167.4206	9
173.0962	20
177.0907	107
187.1472	999
191.1061	11
197.1331	85
205.1596	48
215.142	212
230.8093	10
233.1551	529
