Mass spectrum: Liquiritigenin; LC-ESI-ITFT; MS2; CE: 45eV;  [M+H]+
Name: Liquiritigenin
Class: coumarin
Formula: C15H12O4
Exact mass: 256.0736
SMILES: C1C(OC2=C(C1=O)C=CC(=C2)O)C3=CC=C(C=C3)O
InChI: InChI=1S/C15H12O4/c16-10-3-1-9(2-4-10)14-8-13(18)12-6-5-11(17)7-15(12)19-14/h1-7,14,16-17H,8H2
Instrument: LTQ Orbitrap XL, Thermo Scientfic; Dionex Ultimate 300
Instrument type: LC-ESI-ITFT
Ms type: MS2
Ion mode: POSITIVE
Ionization: ESI
Collision energy: 45eV
Column name: Alltima C18
Retention time: 20.25 min
Base peak: 257.0804
Precursor m/z: 257.0804
Precursor type: [M+H]+
m/z	relative intensity
80.8522	148
106.8329	403
116.9051	999
122.9543	872
145.1396	21
159.0741	73
168.9669	225
178.8865	25
182.9551	647
201.072	80
225.1003	31
230.1391	26
