Mass spectrum: Eriodictyol-7-O-glucoside; LC-ESI-QTOF; MS2; CE: 50eV;  [M-H]-
Name: Eriodictyol-7-O-glucoside
Class: Flavanone
Formula: C21H22O11
Exact mass: 450.1162
SMILES: C1C(OC2=CC(=CC(=C2C1=O)O)OC3C(C(C(C(O3)CO)O)O)O)C4=CC(=C(C=C4)O)O
InChI: InChI=1S/C21H22O11/c22-7-16-18(27)19(28)20(29)21(32-16)30-9-4-12(25)17-13(26)6-14(31-15(17)5-9)8-1-2-10(23)11(24)3-8/h1-5,14,16,18-25,27-29H,6-7H2
Instrument: TIMS-TOF Pro, Bruker Daltonik; Elute UHPLC System, Bruker Daltonik
Instrument type: LC-ESI-QTOF
Ms type: MS2
Ion mode: NEGATIVE
Ionization: ESI
Collision energy: 50eV
Column name: Acquity CSHC18
Retention time: 5.179 min
Base peak: 449.1029
Precursor m/z: 449.1029
Precursor type: [M-H]-
Precursor intensity: 62523.89
m/z	relative intensity
20.8839	1
49.7717	1
51.4689	1
56.1427	1
57.3148	1
63.0224	1
65.0029	13
66.079	1
77.0373	1
80.1445	1
83.0126	23
97.0299	3
106.9048	1
107.0124	83
108.0146	5
109.0107	6
110.0164	1
118.9803	1
121.0288	1
123.0091	1
125.0196	4
130.0406	1
131.0115	2
131.6295	1
134.0354	4
135.0239	215
135.2655	1
135.5438	1
135.643	1
135.7421	1
136.0436	3
137.0237	2
143.218	1
145.6625	1
147.1544	1
149.0213	3
150.9097	1
151.0008	290
151.3725	1
151.6622	1
152.0041	18
152.0916	1
153.003	2
159.0431	1
161.0218	4
162.1944	1
164.0087	4
165.0158	5
169.8325	1
175	8
176.0048	2
177.0166	2
183.7077	2
207.0138	1
253.0375	1
286.9205	1
287.0514	999
287.3119	1
287.4148	2
287.5565	2
287.7651	1
287.8721	1
288.0076	40
288.161	1
288.4582	1
288.5747	1
288.7984	1
289.0584	6
311.0492	3
313.0518	12
314.0541	2
329.0638	1
387.85	1
449.0996	88
