Mass spectrum: N-Cbz-22,26-epimino-23alphaOH, 16beta, 23-epoxy-5alpha, 22alphaH, 25betaH-cholestan-3-on; APCI-ITFT; MS2; CE: HCD 90;  [M-H]-
Name: N-Cbz-22,26-epimino-23alphaOH, 16beta, 23-epoxy-5alpha, 22alphaH, 25betaH-cholestan-3-on
Class: NA
Formula: C35H49NO5
Exact mass: 563.36107
SMILES: O=C1CC[C@@]2(C)[C@](CC[C@]3([H])[C@@]([H])2CC[C@@]4(C)[C@]([H])3C[C@@]([H])(O[C@@](C[C@H](C)CN6C(OCC7=CC=CC=C7)=O)(O)[C@@]6([H])[C@H]5C)[C@]54[H])([H])C1
InChI: InChI=1S/C35H49NO5/c1-21-18-35(39)31(36(19-21)32(38)40-20-23-8-6-5-7-9-23)22(2)30-29(41-35)17-28-26-11-10-24-16-25(37)12-14-33(24,3)27(26)13-15-34(28,30)4/h5-9,21-22,24,26-31,39H,10-20H2,1-4H3/t21-,22-,24-,26+,27-,28-,29+,30-,31+,33-,34-,35+/m0/s1
Instrument: Orbitrap Elite
Instrument type: APCI-ITFT
Ms type: MS2
Ion mode: NEGATIVE
Ionization: APCI
Collision energy: HCD 90
Column name: Acquity CSHC18
Retention time: 0.185 min
Base peak: 562.35470
Precursor m/z: 562.35470
Precursor type: [M-H]-
Precursor intensity: 3033408
m/z	relative intensity
92.0511	31
98.062	72
107.051	64
108.0462	81
110.0618	577
138.0928	191
182.0825	283
271.1717	72
287.2026	57
313.2178	530
315.2336	64
368.2597	37
376.265	56
390.2816	76
392.2947	36
394.2761	119
406.2779	36
408.2889	442
410.3084	84
424.2861	93
426.3035	491
454.2976	999
455.3018	44
