Mass spectrum: N-Acetyl-L-aspartic acid; LC-ESI-ITFT; MS2; CE: 10;  [M-H]-
Name: N-Acetyl-L-aspartic acid
Class: Organic acids and derivatives; Carboxylic acids and derivatives; Amino acids, peptides, and analogues
Formula: C6H9NO5
Exact mass: 175.04807
SMILES: CC(=O)N[C@@H](CC(O)=O)C(O)=O
InChI: InChI=1S/C6H9NO5/c1-3(8)7-4(6(11)12)2-5(9)10/h4H,2H2,1H3,(H,7,8)(H,9,10)(H,11,12)/t4-/m0/s1
Instrument: Thermo Scientific Q-Exactive Focus
Instrument type: LC-ESI-ITFT
Ms type: MS2
Ion mode: NEGATIVE
Ionization: ESI
Collision energy: 10
Column name: Acquity CSHC18
Retention time: 0.364 min
Base peak: 174.04080
Precursor m/z: 174.04080
Precursor type: [M-H]-
m/z	relative intensity
58.0286	261
59.0126	183
71.0126	48
88.0392	999
112.0392	67
114.0185	274
115.0024	199
130.0498	400
156.0292	88
174.0398	461
