Mass spectrum: (20R,22S,25S)-3beta-Acetoxy-22,26-acetimino-5alpha-cholestan-20-ol; APCI-ITFT; MS2; CE: CID 35;  [M-H]-
Name: (20R,22S,25S)-3beta-Acetoxy-22,26-acetimino-5alpha-cholestan-20-ol
Class: NA
Formula: C31H51NO4
Exact mass: 501.38181
SMILES: C[C@H](CN1C(C)=O)CC[C@H]1[C@](C)(O)[C@H]2CC[C@@]3([H])[C@]4([H])CC[C@@]5([H])C[C@@H](OC(C)=O)CC[C@]5(C)[C@@]4([H])CC[C@]23C
InChI: InChI=1S/C31H51NO4/c1-19-7-12-28(32(18-19)20(2)33)31(6,35)27-11-10-25-24-9-8-22-17-23(36-21(3)34)13-15-29(22,4)26(24)14-16-30(25,27)5/h19,22-28,35H,7-18H2,1-6H3/t19-,22-,23-,24-,25-,26-,27-,28-,29-,30-,31+/m0/s1
Instrument: Orbitrap Elite
Instrument type: APCI-ITFT
Ms type: MS2
Ion mode: NEGATIVE
Ionization: APCI
Collision energy: CID 35
Column name: Acquity CSHC18
Retention time: 0.130 min
Base peak: 500.37350
Precursor m/z: 500.37350
Precursor type: [M-H]-
Precursor intensity: 42604.5
m/z	relative intensity
359.2582	999
