Mass spectrum: N-ACETYLLEUCINE; LC-ESI-QTOF; MS2; CE: 10;  [M-H]-
Name: N-ACETYLLEUCINE
Class: NA
Formula: C8H15NO3
Exact mass: 173.10519
SMILES: CC(C)C[C@H](NC(C)=O)C(O)=O
InChI: InChI=1S/C8H15NO3/c1-5(2)4-7(8(11)12)9-6(3)10/h5,7H,4H2,1-3H3,(H,9,10)(H,11,12)/t7-/m0/s1
Instrument: Agilent 6530Â Q-TOF LC/MS
Instrument type: LC-ESI-QTOF
Ms type: MS2
Ion mode: NEGATIVE
Ionization: ESI
Collision energy: 10
Column name: NA
Retention time: 0.200 min
Base peak: 172.09564
Precursor m/z: 172.09564
Precursor type: [M-H]-
Precursor intensity: 122
m/z	relative intensity
130.1182	443
172.1107	999
