Mass spectrum: 3-GlcA-28-Glc-Hederagenin; ESI-QTOF; MS2; CE: 30 eV;  [M-H]-
Name: 3-GlcA-28-Glc-Hederagenin
Class: Saponin
Formula: C42H66O15
Exact mass: 810.4402
SMILES: CC1(C)CCC2(CCC3(C)C(=CCC4(C5(C)CCC(C(C)(CO)C5(CCC43C)[H])(OC6(C(C(C(C(C(=O)O)(O6)[H])(O)[H])(O)[H])(O)[H])[H])[H])[H])C2(C1)[H])C(=O)OC7(C(C(C(C(CO)(O7)[H])(O)[H])(O)[H])(O)[H])[H]
InChI: InChI=1S/C42H66O15/c1-37(2)13-15-42(36(53)57-34-30(49)27(46)26(45)22(18-43)54-34)16-14-40(5)20(21(42)17-37)7-8-24-38(3)11-10-25(39(4,19-44)23(38)9-12-41(24,40)6)55-35-31(50)28(47)29(48)32(56-35)33(51)52/h7,21-32,34-35,43-50H,8-19H2,1-6H3,(H,51,52)
Instrument: Synapt (HDMS 1st gen)
Instrument type: ESI-QTOF
Ms type: MS2
Ion mode: NEGATIVE
Ionization: ESI
Collision energy: 30 eV
Column name: Acquity CSHC18
Retention time: 19.675 min
Base peak: 809.4306
Precursor m/z: 809.4306
Precursor type: [M-H]-
Precursor intensity: 7407.41
m/z	relative intensity
647.378	4
648.3809	10
809.4305	16
809.9183	999
