Mass spectrum: Epigallocatechin gallate; LC-ESI-ITFT; MS2; CE: 45eV;  [M-H]-
Name: Epigallocatechin gallate
Class: flavonoid
Formula: C22H18O11
Exact mass: 458.0849
SMILES: C1C(C(OC2=CC(=CC(=C21)O)O)C3=CC(=C(C(=C3)O)O)O)OC(=O)C4=CC(=C(C(=C4)O)O)O
InChI: InChI=1S/C22H18O11/c23-10-5-12(24)11-7-18(33-22(31)9-3-15(27)20(30)16(28)4-9)21(32-17(11)6-10)8-1-13(25)19(29)14(26)2-8/h1-6,18,21,23-30H,7H2
Instrument: LTQ Orbitrap XL, Thermo Scientfic; Dionex Ultimate 300
Instrument type: LC-ESI-ITFT
Ms type: MS2
Ion mode: NEGATIVE
Ionization: ESI
Collision energy: 45eV
Column name: Alltima C18
Retention time: 13.59 min
Base peak: 457.0735
Precursor m/z: 457.0735
Precursor type: [M-H]-
m/z	relative intensity
149.1661	8
160.9916	272
165.0134	89
172.9863	12
179.0535	127
200.1259	25
241.1433	8
261.0397	38
275.0727	999
285.0329	8
291.1327	157
329.1285	17
389.3381	8
413.2057	488
429.1162	8
