Mass spectrum: 6-alpha-Prostaglandin I1; ESI-TOF; MS2; CE: 0.6458333;  [M+H]+
Name: 6-alpha-Prostaglandin I1
Class: NA
Formula: C20H34O5
Exact mass: 354.24062
SMILES: CCCCCC(O)/C=C/[C@H]1C(O)CC2O[C@H](CCCCC(=O)O)CC12
InChI: InChI=1S/C20H34O5/c1-2-3-4-7-14(21)10-11-16-17-12-15(8-5-6-9-20(23)24)25-19(17)13-18(16)22/h10-11,14-19,21-22H,2-9,12-13H2,1H3,(H,23,24)/b11-10+/t14?,15-,16-,17?,18?,19?/m1/s1
Instrument: waters xevo g2 TOF
Instrument type: ESI-TOF
Ms type: MS2
Ion mode: POSITIVE
Ionization: ESI
Collision energy: 0.6458333
Column name: Acquity CSHC18
Retention time: 3.753 min
Base peak: 355.24862
Precursor m/z: 355.24862
Precursor type: [M+H]+
m/z	relative intensity
67.0541	189
71.0846	47
79.0546	282
81.0705	272
91.0553	999
92.06	48
93.0705	575
95.0861	254
97.1015	27
101.0607	403
105.071	772
111.0459	852
112.0497	31
113.062	128
118.0754	76
119.0869	895
123.0812	57
129.0717	652
133.1032	420
141.0717	143
145.1022	508
146.1066	37
147.1182	133
151.0062	94
159.1188	174
161.1311	113
167.0845	68
169.0168	36
171.1187	262
173.1337	179
175.149	441
183.1178	139
184.1194	21
185.1337	283
186.1384	33
188.153	28
189.1653	169
191.1456	155
199.1482	188
201.1666	45
203.1425	99
205.1613	20
207.1758	63
209.126	88
217.1582	121
219.1761	37
227.1849	24
241.1941	86
255.2101	119
265.1947	102
283.2057	188
301.2168	460
302.2206	110
303.2273	61
313.1454	37
314.1349	39
317.2101	106
318.126	277
337.2378	34
347.1282	145
