Mass spectrum: Kaempferol; LC-ESI-QFT; MS2; CE: 15,30,45 (NCE);  [M-H]-
Name: Kaempferol
Class: NA
Formula: C15H10O6
Exact mass: 286.0477
SMILES: OC1=CC=C(C=C1)C1=C(O)C(=O)C2=C(O)C=C(O)C=C2O1
InChI: InChI=1S/C15H10O6/c16-8-3-1-7(2-4-8)15-14(20)13(19)12-10(18)5-9(17)6-11(12)21-15/h1-6,16-18,20H
Instrument: QE Focus, Thermo Scientfic; UPLC I-Class, Waters
Instrument type: LC-ESI-QFT
Ms type: MS2
Ion mode: NEGATIVE
Ionization: ESI
Collision energy: 15,30,45 (NCE)
Column name: Acquity CSHC18
Retention time: 2.437 min
Base peak: 285.0407
Precursor m/z: 285.0407
Precursor type: [M-H]-
Precursor intensity: 272701000
m/z	relative intensity
93.0329	252
140.8811	246
180.5259	225
185.0602	999
