Mass spectrum: papaverine; LC-ESI-ITFT; MS2; CE: 0.3;  [M+H]+
Name: papaverine
Class: alkaloids
Formula: C20H21NO4
Exact mass: 339.1471
SMILES: COC1=C(C=C(C=C1)CC2=NC=CC3=CC(=C(C=C32)OC)OC)OC
InChI: InChI=1S/C20H21NO4/c1-22-17-6-5-13(10-18(17)23-2)9-16-15-12-20(25-4)19(24-3)11-14(15)7-8-21-16/h5-8,10-12H,9H2,1-4H3
Instrument: LTQ-Orbitrap XL hybrid mass spectrometer (Thermo Scientific)
Instrument type: LC-ESI-ITFT
Ms type: MS2
Ion mode: POSITIVE
Ionization: ESI
Collision energy: 0.3
Column name: Acquity CSHC18
Retention time: 5.893 min
Base peak: 340.1541
Precursor m/z: 340.1541
Precursor type: [M+H]+
Precursor intensity: 131880800
m/z	relative intensity
81.0425	2
85.5453	1
87.5239	1
91.3465	1
95.363	1
101.3832	1
102.197	1
105.0762	1
140.3219	1
142.0642	2
148.0519	2
156.0438	2
167.0253	7
170.0605	3
171.0677	49
172.0756	6
174.0911	2
175.0754	5
187.0626	10
190.0868	2
197.6116	2
200.8449	2
202.0862	699
202.1247	5
202.133	4
202.1508	3
202.1583	2
203.094	15
280.532	1
282.6324	1
287.1466	3
295.1214	2
296.1284	30
307.1204	7
308.1284	11
310.1079	20
324.1231	226
324.1634	5
325.131	140
325.9327	1
326.6922	1
337.447	2
339.726	1
339.742	1
339.8021	2
339.8588	2
339.8717	1
339.8969	2
339.9316	2
339.9532	3
339.9696	3
339.991	4
340.0094	4
340.0271	4
340.0476	5
340.0646	5
340.084	5
340.1541	999
340.2195	4
340.2361	5
340.2549	5
340.2732	4
340.2927	4
340.3304	3
340.3512	3
340.388	2
340.4059	2
340.4429	1
340.4648	2
340.4854	1
340.5417	1
