Mass spectrum: N-Alpha-acetyllysine; ESI-TOF; MS2; CE: 6.0000000;  [M+H]+
Name: N-Alpha-acetyllysine
Class: NA
Formula: C8H16N2O3
Exact mass: 188.11609
SMILES: CC(=O)NC(CCCCN)C(O)=O
InChI: InChI=1S/C8H16N2O3/c1-6(11)10-7(8(12)13)4-2-3-5-9/h7H,2-5,9H2,1H3,(H,10,11)(H,12,13)
Instrument: waters xevo g2 TOF
Instrument type: ESI-TOF
Ms type: MS2
Ion mode: POSITIVE
Ionization: ESI
Collision energy: 6.0000000
Column name: Acquity CSHC18
Retention time: 0.532 min
Base peak: 189.12409
Precursor m/z: 189.12409
Precursor type: [M+H]+
m/z	relative intensity
85.0846	2
102.092	1
112.0763	1
126.0919	30
129.1027	353
147.1134	88
148.1165	6
153.1027	40
154.0877	5
158.0029	5
171.1133	75
172.0975	72
173.1007	6
178.1242	1
189.1239	999
190.1269	106
191.1291	13
198.0457	2
211.1062	1
258.1717	2
377.2406	2
431.1606	1
618.2664	1
619.2728	1
806.3817	1
807.3929	1
