Mass spectrum: Chalcone; LC-ESI-QTOF; MS2; CE: 15.00;  [M+H]+
Name: Chalcone
Class: NA
Formula: C15H12O
Exact mass: 208.0888
SMILES: C1=CC=C(C=C1)C=CC(=O)C2=CC=CC=C2
InChI: InChI=1S/C15H12O/c16-15(14-9-5-2-6-10-14)12-11-13-7-3-1-4-8-13/h1-12H
Instrument: Bruker MicrOTOF-Q
Instrument type: LC-ESI-QTOF
Ms type: MS2
Ion mode: POSITIVE
Ionization: ESI
Collision energy: 15.00
Column name: Acquity CSHC18
Retention time: NA
Base peak: 209.0961
Precursor m/z: 209.0961
Precursor type: [M+H]+
m/z	relative intensity
131.0476	26
132.0506	34
165.0701	39
166.0771	55
181.101	67
191.0851	72
192.0887	85
194.0722	240
209.0959	499
210.0988	999
