Mass spectrum: 2,3,4-trihydroxybutanoic acid; LC-ESI-QTOF; MS2; CE: -10, -35, -60V;  [M-H]-
Name: 2,3,4-trihydroxybutanoic acid
Class: NA
Formula: C4H8O5
Exact mass: 136.0372
SMILES: C(C(C(C(=O)O)O)O)O
InChI: InChI=1S/C4H8O5/c5-1-2(6)3(7)4(8)9/h2-3,5-7H,1H2,(H,8,9)
Instrument: TripleToF 5600; Sciex
Instrument type: LC-ESI-QTOF
Ms type: MS2
Ion mode: NEGATIVE
Ionization: ESI
Collision energy: -10, -35, -60V
Column name: Acquity CSHC18
Retention time: 2.520 min
Base peak: 135.0286
Precursor m/z: 135.0286
Precursor type: [M-H]-
Precursor intensity: 170322
m/z	relative intensity
71.0171	53
75.008	609
117.0156	56
119.0322	36
135.0297	999
