Mass spectrum: Isophellopterin; LC-ESI-ITFT; MS2; CE: 45eV;  [M+H]+
Name: Isophellopterin
Class: coumarin
Formula: C17H16O5
Exact mass: 300.0998
SMILES: CC(=CCOC1=C2C=COC2=C(C3=C1C=CC(=O)O3)OC)C
InChI: InChI=1S/C17H16O5/c1-10(2)6-8-20-14-11-4-5-13(18)22-16(11)17(19-3)15-12(14)7-9-21-15/h4-7,9H,8H2,1-3H3
Instrument: LTQ Orbitrap XL, Thermo Scientfic; Dionex Ultimate 300
Instrument type: LC-ESI-ITFT
Ms type: MS2
Ion mode: POSITIVE
Ionization: ESI
Collision energy: 45eV
Column name: Alltima C18
Retention time: 23.76 min
Base peak: 301.1065
Precursor m/z: 301.1065
Precursor type: [M+H]+
m/z	relative intensity
233.0061	999
