Mass spectrum: Phloretin; LC-ESI-QTOF; MS2; CE: 15.00;  [M+H]+
Name: Phloretin
Class: NA
Formula: C15H14O5
Exact mass: 274.0841
SMILES: C1=CC(=CC=C1CCC(=O)C2=C(C=C(C=C2O)O)O)O
InChI: InChI=1S/C15H14O5/c16-10-4-1-9(2-5-10)3-6-12(18)15-13(19)7-11(17)8-14(15)20/h1-2,4-5,7-8,16-17,19-20H,3,6H2
Instrument: Bruker MicrOTOF-Q
Instrument type: LC-ESI-QTOF
Ms type: MS2
Ion mode: POSITIVE
Ionization: ESI
Collision energy: 15.00
Column name: Acquity CSHC18
Retention time: NA
Base peak: 275.0914
Precursor m/z: 275.0914
Precursor type: [M+H]+
m/z	relative intensity
107.0478	15
108.0509	20
151.0378	30
169.0492	66
170.0519	405
275.0904	999
