Mass spectrum: Tyramine; LC-ESI-ITFT; MS2; CE: 60;  [M+H]+
Name: Tyramine
Class: Benzenoids; Benzene and substituted derivatives; Phenethylamines
Formula: C8H11NO
Exact mass: 137.08406
SMILES: NCCC1=CC=C(O)C=C1
InChI: InChI=1S/C8H11NO/c9-6-5-7-1-3-8(10)4-2-7/h1-4,10H,5-6,9H2
Instrument: Thermo Scientific Q-Exactive Focus
Instrument type: LC-ESI-ITFT
Ms type: MS2
Ion mode: POSITIVE
Ionization: ESI
Collision energy: 60
Column name: Acquity CSHC18
Retention time: 2.015 min
Base peak: 138.09134
Precursor m/z: 138.09134
Precursor type: [M+H]+
m/z	relative intensity
50.0157	434
51.0236	999
53.0028	84
53.0392	44
65.0028	24
65.0391	211
66.0469	23
77.039	75
91.0546	27
95.0495	92
