Mass spectrum: 3-METHOXYTYRAMINE; LC-ESI-QTOF; MS2; CE: 40;  [M+H]+
Name: 3-METHOXYTYRAMINE
Class: NA
Formula: C9H13NO2
Exact mass: 167.09463
SMILES: COC1=C(O)C=CC(CCN)=C1
InChI: InChI=1S/C9H13NO2/c1-12-9-6-7(4-5-10)2-3-8(9)11/h2-3,6,11H,4-5,10H2,1H3
Instrument: Agilent 6530Â Q-TOF LC/MS
Instrument type: LC-ESI-QTOF
Ms type: MS2
Ion mode: POSITIVE
Ionization: ESI
Collision energy: 40
Column name: NA
Retention time: 0.200 min
Base peak: 168.09864
Precursor m/z: 168.09864
Precursor type: [M+H]+
Precursor intensity: 47.5
m/z	relative intensity
40.0307	27
41.0561	29
44.0483	31
45.0293	31
50.0155	32
51.0421	32
52.0378	32
53.041	34
53.9948	34
55.0209	36
62.0216	38
63.0413	38
65.2737	41
65.6268	47
65.7918	48
66.0454	51
67.0505	53
68.0302	55
77.0688	61
78.0505	61
79.0868	65
79.3342	67
80.0761	70
81.0328	76
89.0534	82
90.0595	86
91.2431	145
91.7236	168
92.0528	208
93.0397	240
94.043	260
95.046	275
103.0583	287
107.0733	665
108.0689	841
119.0465	848
136.057	999
