Mass spectrum: Solanocapsine; APCI-ITFT; MS2; CE: CID 35;  [M-H]-
Name: Solanocapsine
Class: NA
Formula: C27H46N2O2
Exact mass: 430.35593
SMILES: CC1CC2(C(C(C3C(O2)CC4C3(CCC5C4CCC6C5(CCC(C6)N)C)C)C)NC1)O
InChI: InChI=1S/C27H46N2O2/c1-15-13-27(30)24(29-14-15)16(2)23-22(31-27)12-21-19-6-5-17-11-18(28)7-9-25(17,3)20(19)8-10-26(21,23)4/h15-24,29-30H,5-14,28H2,1-4H3
Instrument: Orbitrap Elite
Instrument type: APCI-ITFT
Ms type: MS2
Ion mode: NEGATIVE
Ionization: APCI
Collision energy: CID 35
Column name: Acquity CSHC18
Retention time: 0.113 min
Base peak: 429.34820
Precursor m/z: 429.34820
Precursor type: [M-H]-
Precursor intensity: 60070040
m/z	relative intensity
162.0927	22
164.1082	2
182.1197	3
272.2014	34
273.2061	6
274.218	50
275.2182	4
288.2331	211
289.2361	86
290.2398	10
298.2538	2
300.233	64
301.236	6
314.2485	126
315.252	60
316.2645	201
317.2675	14
318.2803	86
319.2842	6
327.279	3
328.2632	12
329.2583	3
330.2783	12
336.2896	2
341.2986	13
342.2772	3
343.2761	12
344.255	10
345.2926	238
346.2982	18
351.2814	2
359.3069	17
360.288	5
369.2937	12
373.2833	4
377.2965	13
378.295	2
381.3278	8
385.3219	7
387.2833	6
387.3029	29
388.3025	2
391.3115	85
392.3138	11
393.327	43
394.3283	4
395.3081	97
396.3115	7
399.3391	10
400.3384	2
401.3543	16
407.3084	18
408.3078	7
409.3203	603
410.3283	114
411.3393	476
412.2902	6
412.3402	37
413.3165	999
414.3177	96
425.3177	3
426.317	7
427.328	10
428.3352	3
429.3533	3
