Mass spectrum: Chelirubine; ESI-QTOF; MS2; CE: 1, 35, 60;  [M+H]+
Name: Chelirubine
Class: Benzylisoquinoline (subclass:Benzophenanthridine) alkaloid
Formula: [C21H16NO5]+
Exact mass: 362.1023
SMILES: C[N+]1=CC2=C3C(=CC(=C2C4=C1C5=CC6=C(C=C5C=C4)OCO6)OC)OCO3
InChI: InChI=1S/C21H16NO5/c1-22-8-14-19(17(23-2)7-18-21(14)27-10-26-18)12-4-3-11-5-15-16(25-9-24-15)6-13(11)20(12)22/h3-8H,9-10H2,1-2H3/q+1
Instrument: AB Sciex TripleToF 5500
Instrument type: ESI-QTOF
Ms type: MS2
Ion mode: POSITIVE
Ionization: ESI
Collision energy: 1, 35, 60
Column name: Acquity CSHC18
Retention time: 6.996 min
Base peak: 363.1049
Precursor m/z: 363.1049
Precursor type: [M+H]+
Precursor intensity: 1805491
m/z	relative intensity
205.0736	62
217.0597	101
219.0538	105
220.0641	148
234.0723	155
320.0685	191
349.0741	999
