Mass spectrum: Urocanic acid; ESI-TOF; MS2; CE: 0.6458333;  [M+H]+
Name: Urocanic acid
Class: NA
Formula: C6H6N2O2
Exact mass: 138.04293
SMILES: OC(=O)C=CC1=CNC=N1
InChI: InChI=1S/C6H6N2O2/c9-6(10)2-1-5-3-7-4-8-5/h1-4H,(H,7,8)(H,9,10)
Instrument: waters xevo g2 TOF
Instrument type: ESI-TOF
Ms type: MS2
Ion mode: POSITIVE
Ionization: ESI
Collision energy: 0.6458333
Column name: Acquity CSHC18
Retention time: 0.563 min
Base peak: 139.05093
Precursor m/z: 139.05093
Precursor type: [M+H]+
m/z	relative intensity
66.0351	25
93.0456	477
94.0482	29
95.0607	122
96.0645	6
97.0404	21
121.0403	999
122.043	57
139.0508	284
140.0535	24
