Mass spectrum: PALATINOSE; LC-ESI-QFT; MS2; CE: 30eV;  [M-H]-
Name: PALATINOSE
Class: NA
Formula: C12H22O11
Exact mass: 342.11621
SMILES: C(C1C(C(C(C(O1)OCC2C(C(C(O2)(CO)O)O)O)O)O)O)O
InChI: InChI=1S/C12H22O11/c13-1-4-6(15)8(17)9(18)11(22-4)21-2-5-7(16)10(19)12(20,3-14)23-5/h4-11,13-20H,1-3H2
Instrument: Q-Exactive Orbitrap, Thermo Scientfic; Ultimate 3000 HPLC, Thermo Scientfic
Instrument type: LC-ESI-QFT
Ms type: MS2
Ion mode: NEGATIVE
Ionization: ESI
Collision energy: 30eV
Column name: Acquity CSHC18
Retention time: 0.562 min
Base peak: 341.1089
Precursor m/z: 341.1089
Precursor type: [M-H]-
Precursor intensity: 114
m/z	relative intensity
51.8284	59
51.8299	67
52.6952	62
53.6555	62
53.8061	57
57.8639	61
57.9758	74
58.0553	63
58.7137	60
59.0124	330
61.2788	69
61.99	68
66.0758	73
66.3418	73
66.5716	67
67.2039	62
70.0901	81
71.0125	160
74.6484	74
79.5264	84
80.2713	77
89.023	406
101.023	347
102.9474	357
106.0947	79
119.0334	174
124.3747	72
129.8632	100
132.9227	106
135.6271	83
137.2921	84
138.9513	86
146.922	91
146.9375	692
163.7823	95
166.8426	120
168.05	82
168.8409	137
170.2084	91
177.7992	79
179.8509	445
194.0873	78
215.7698	951
216.7773	999
217.7678	954
218.7758	404
251.7817	383
260.7679	818
262.7664	167
266.1449	87
268.8512	314
269.7922	108
297.695	358
305.0857	79
