Mass spectrum: 5,7-Dihydroxyflavone; LC-ESI-QTOF; MS2; CE: 15.00;  [M+H]+
Name: 5,7-Dihydroxyflavone
Class: NA
Formula: C15H10O4
Exact mass: 254.0579
SMILES: C1=CC=C(C=C1)C2=CC(=O)C3=C(C=C(C=C3O2)O)O
InChI: InChI=1S/C15H10O4/c16-10-6-11(17)15-12(18)8-13(19-14(15)7-10)9-4-2-1-3-5-9/h1-8,16-17H
Instrument: Bruker MicrOTOF-Q
Instrument type: LC-ESI-QTOF
Ms type: MS2
Ion mode: POSITIVE
Ionization: ESI
Collision energy: 15.00
Column name: Acquity CSHC18
Retention time: NA
Base peak: 255.0652
Precursor m/z: 255.0652
Precursor type: [M+H]+
m/z	relative intensity
254.919	20
255.0756	727
256.0704	999
