Mass spectrum: CONIFERYL ALCOHOL; LC-ESI-QTOF; MS2; CE: -10, -35, -60V;  [M-H]-
Name: CONIFERYL ALCOHOL
Class: NA
Formula: C10H12O3
Exact mass: 180.0786
SMILES: COC1=C(C=CC(=C1)C=CCO)O
InChI: InChI=1S/C10H12O3/c1-13-10-7-8(3-2-6-11)4-5-9(10)12/h2-5,7,11-12H,6H2,1H3
Instrument: TripleToF 5600; Sciex
Instrument type: LC-ESI-QTOF
Ms type: MS2
Ion mode: NEGATIVE
Ionization: ESI
Collision energy: -10, -35, -60V
Column name: Acquity CSHC18
Retention time: 7.346 min
Base peak: 179.0717
Precursor m/z: 179.0717
Precursor type: [M-H]-
Precursor intensity: 5045.19
m/z	relative intensity
146.0411	424
147.0476	123
161.0606	176
163.0409	64
164.0464	353
165.0586	315
169.0487	85
172.0962	114
175.0943	79
179.037	343
179.0748	999
