Mass spectrum: ent-Prostaglandin E2; ESI-TOF; MS2; CE: 0.6458333;  [M+H]+
Name: ent-Prostaglandin E2
Class: NA
Formula: C20H32O5
Exact mass: 352.22497
SMILES: O=C1[C@@H](C/C=C\CCCC(O)=O)[C@H](/C=C/[C@H](O)CCCCC)[C@@H](O)C1
InChI: InChI=1S/C20H32O5/c1-2-3-6-9-15(21)12-13-17-16(18(22)14-19(17)23)10-7-4-5-8-11-20(24)25/h4,7,12-13,15-17,19,21,23H,2-3,5-6,8-11,14H2,1H3,(H,24,25)/b7-4-,13-12+/t15-,16+,17+,19+/m1/s1
Instrument: waters xevo g2 TOF
Instrument type: ESI-TOF
Ms type: MS2
Ion mode: POSITIVE
Ionization: ESI
Collision energy: 0.6458333
Column name: Acquity CSHC18
Retention time: 3.581 min
Base peak: 353.23297
Precursor m/z: 353.23297
Precursor type: [M+H]+
m/z	relative intensity
100.9321	44
132.0902	59
135.0812	114
141.0708	261
159.0812	534
161.1314	212
165.0215	80
169.0993	619
175.1108	126
179.0874	105
183.0806	62
187.11	282
189.1244	125
197.0937	214
199.1131	142
205.1388	44
206.003	229
211.1137	303
215.1427	325
225.1295	110
229.1968	172
237.1648	105
239.1806	242
245.1891	191
247.152	71
253.1955	229
255.1745	212
257.1908	168
263.1346	129
271.2066	306
272.2125	33
281.1898	593
299.2001	631
303.1635	999
304.1682	162
319.1333	312
334.2103	73
