Mass spectrum: Epinephrine; LC-ESI-ITFT; MS2; CE: 100;  [M-H]-
Name: Epinephrine
Class: Benzenoids; Phenols; Benzenediols
Formula: C9H13NO3
Exact mass: 183.08954
SMILES: CNC[C@H](O)C1=CC(O)=C(O)C=C1
InChI: InChI=1S/C9H13NO3/c1-10-5-9(13)6-2-3-7(11)8(12)4-6/h2-4,9-13H,5H2,1H3/t9-/m0/s1
Instrument: Thermo Scientific Q-Exactive Focus
Instrument type: LC-ESI-ITFT
Ms type: MS2
Ion mode: NEGATIVE
Ionization: ESI
Collision energy: 100
Column name: Acquity CSHC18
Retention time: 2.582 min
Base peak: 182.08228
Precursor m/z: 182.08228
Precursor type: [M-H]-
m/z	relative intensity
77.9581	999
82.7361	795
87.5567	774
109.4907	780
118.1987	960
122.6981	922
137.3921	792
150.988	852
176.2913	953
180.1674	886
