Mass spectrum: Amentoflavone; LC-ESI-QFT; MS2; CE: 15,30,45 (NCE);  [M+H]+
Name: Amentoflavone
Class: NA
Formula: C30H18O10
Exact mass: 538.0900
SMILES: OC1=CC=C(C=C1)C1=CC(=O)C2=C(O)C=C(O)C(=C2O1)C1=C(O)C=CC(=C1)C1=CC(=O)C2=C(O)C=C(O)C=C2O1
InChI: InChI=1S/C30H18O10/c31-15-4-1-13(2-5-15)24-12-23(38)29-21(36)10-20(35)27(30(29)40-24)17-7-14(3-6-18(17)33)25-11-22(37)28-19(34)8-16(32)9-26(28)39-25/h1-12,31-36H
Instrument: QE Focus, Thermo Scientfic; UPLC I-Class, Waters
Instrument type: LC-ESI-QFT
Ms type: MS2
Ion mode: POSITIVE
Ionization: ESI
Collision energy: 15,30,45 (NCE)
Column name: Acquity CSHC18
Retention time: 2.764 min
Base peak: 539.0978
Precursor m/z: 539.0978
Precursor type: [M+H]+
Precursor intensity: 24484920
m/z	relative intensity
55.7396	3
56.0755	2
69.733	2
71.7519	2
74.1478	2
100.8578	3
102.3388	2
104.1978	3
121.0287	24
137.1563	3
145.0292	3
153.0189	25
159.7332	3
211.632	3
212.0724	3
270.0536	4
283.0602	17
286.4271	3
307.0602	13
311.0557	11
312.2691	3
319.0608	4
335.0548	52
345.0756	6
347.0549	16
359.0571	4
375.0484	3
377.0659	82
387.0864	24
394.1265	3
403.0448	87
421.0549	6
497.0876	17
539.0977	999
