Mass spectrum: alpha-D-Sophorose; ESI-TOF; MS2; CE: 0.6458333;  [M+H]+
Name: alpha-D-Sophorose
Class: NA
Formula: C12H22O11
Exact mass: 342.11621
SMILES: O([C@@H]1O[C@H](CO)[C@@H](O)[C@H](O)[C@H]1O)[C@@H]2[C@@H](O)[C@H](O)[C@H](O[C@@H]2O)CO
InChI: InChI=1S/C12H22O11/c13-1-3-6(16)8(18)10(11(20)21-3)23-12-9(19)7(17)5(15)4(2-14)22-12/h3-20H,1-2H2/t3-,4-,5-,6-,7+,8+,9-,10-,11+,12+/m1/s1
Instrument: waters xevo g2 TOF
Instrument type: ESI-TOF
Ms type: MS2
Ion mode: POSITIVE
Ionization: ESI
Collision energy: 0.6458333
Column name: Acquity CSHC18
Retention time: 0.532 min
Base peak: 343.12421
Precursor m/z: 343.12421
Precursor type: [M+H]+
m/z	relative intensity
85.0281	264
97.0284	64
98.9757	115
127.039	118
145.05	200
158.9963	40
163.0601	65
172.9767	2
172.9771	2
182.0317	2
191.0241	60
191.5396	2
201.0064	110
216.978	98
261.0287	230
275.9935	283
277	232
279.0015	70
281.0701	73
321.0494	87
325.113	69
326.1139	2
337.0238	42
360.1494	2
362.0969	388
362.5987	105
363.0985	34
365.1054	999
366.1078	72
367.1134	2
370.0849	2
371.0796	2
396.0357	16
399.043	2
456.0542	112
487.1595	8
533.1562	45
533.6627	21
541.1409	2
542.1435	2
559.6124	2
704.2132	2
704.7173	2
707.2199	27
738.1498	29
739.1534	2
