Mass spectrum: 17-trifluoromethylphenyl-13,14-dihydro trinor Prostaglandin F1-alpha; ESI-TOF; MS2; CE: 0.6458333;  [M+H]+
Name: 17-trifluoromethylphenyl-13,14-dihydro trinor Prostaglandin F1-alpha
Class: NA
Formula: C24H35F3O5
Exact mass: 460.24366
SMILES: O[C@@H]1[C@H](CCCCCCC(O)=O)[C@@H](CC[C@@H](O)CCC2=CC(C(F)(F)F)=CC=C2)[C@H](O)C1
InChI: InChI=1S/C24H35F3O5/c25-24(26,27)17-7-5-6-16(14-17)10-11-18(28)12-13-20-19(21(29)15-22(20)30)8-3-1-2-4-9-23(31)32/h5-7,14,18-22,28-30H,1-4,8-13,15H2,(H,31,32)/t18-,19+,20+,21-,22+/m0/s1
Instrument: waters xevo g2 TOF
Instrument type: ESI-TOF
Ms type: MS2
Ion mode: POSITIVE
Ionization: ESI
Collision energy: 0.6458333
Column name: Acquity CSHC18
Retention time: 4.026 min
Base peak: 461.25166
Precursor m/z: 461.25166
Precursor type: [M+H]+
m/z	relative intensity
79.054	80
81.0698	75
83.0863	30
91.0551	146
93.0708	219
105.0713	127
107.0862	151
109.066	9
117.0709	44
119.0863	71
129.0713	43
131.0867	198
132.0886	11
133.1024	114
135.1173	59
145.102	104
147.1172	56
153.0515	23
159.0809	88
161.1344	42
169.1021	22
171.1176	81
172.1172	11
173.0962	424
174.1378	65
180.0853	15
185.0967	51
187.1469	37
191.1421	44
199.1097	43
201.0523	33
207.138	23
209.1533	24
211.1157	92
235.1004	11
236.1723	14
249.1258	27
251.111	45
253.1284	14
269.1294	17
277.1166	41
279.1358	158
291.134	35
293.1483	53
295.1302	75
329.1906	71
343.1627	11
347.1993	328
349.1971	24
361.207	18
365.2102	73
367.2067	104
368.2122	19
369.2024	19
371.2001	146
377.1737	15
385.2122	8
387.2108	55
389.2087	248
390.2129	56
407.2201	999
408.2231	187
421.168	55
425.2296	216
426.2328	51
439.1778	304
440.1819	18
444.2384	3
450.141	14
455.1534	178
461.2528	64
462.2582	12
