Mass spectrum: XANTHINE; LC-ESI-QFT; MS2; CE: 30eV;  [M+H]+
Name: XANTHINE
Class: NA
Formula: C5H4N4O2
Exact mass: 152.03343
SMILES: O=C1NC2=C(NC=N2)C(=O)N1
InChI: InChI=1S/C5H4N4O2/c10-4-2-3(7-1-6-2)8-5(11)9-4/h1H,(H3,6,7,8,9,10,11)
Instrument: Q-Exactive Orbitrap, Thermo Scientfic; Ultimate 3000 HPLC, Thermo Scientfic
Instrument type: LC-ESI-QFT
Ms type: MS2
Ion mode: POSITIVE
Ionization: ESI
Collision energy: 30eV
Column name: Acquity CSHC18
Retention time: 0.873 min
Base peak: 153.0407
Precursor m/z: 153.0407
Precursor type: [M+H]+
Precursor intensity: 172
m/z	relative intensity
52.6326	3
55.0298	18
55.2362	3
80.3172	3
82.0407	6
110.0354	776
111.0387	5
121.0287	5
128.0458	114
128.0506	5
136.0145	152
153.1275	6
154.025	999
154.0444	87
155.0284	29
164.5701	4
166.5711	3
170.8683	4
