Mass spectrum: m-Thymol, 3-p-Cymenol; LC-ESI-QTOF; MS2; CE: 15.00;  [M+H]+
Name: m-Thymol, 3-p-Cymenol
Class: NA
Formula: C10H14O
Exact mass: 150.1045
SMILES: CC1=CC(=C(C=C1)C(C)C)O
InChI: InChI=1S/C10H14O/c1-7(2)9-5-4-8(3)6-10(9)11/h4-7,11H,1-3H3
Instrument: Bruker MicrOTOF-Q
Instrument type: LC-ESI-QTOF
Ms type: MS2
Ion mode: POSITIVE
Ionization: ESI
Collision energy: 15.00
Column name: Acquity CSHC18
Retention time: NA
Base peak: 151.1117
Precursor m/z: 151.1117
Precursor type: [M+H]+
m/z	relative intensity
89.46	6
91.05	144
92.05	14
93.03	6
94.04	68
95.05	7
98.5	6
107.05	108
108.05	9
108.98	7
109.06	999
109.17	5
109.28	5
110.07	58
115.02	5
117.07	7
120.35	4
135.08	15
433.61	5
