Mass spectrum: 16-hydroxytabersonine; ESI-QTOF; MS2; CE: 30 eV;  [M+H]+
Name: 16-hydroxytabersonine
Class: NA
Formula: C21H24N2O3
Exact mass: 352.1787
SMILES: CCC12C=CCN3CCC4(C=5C=CC(=CC5NC4=C(C1)C(=O)OC)O)C23[H]
InChI: InChI=1S/C21H24N2O3/c1-3-20-7-4-9-23-10-8-21(19(20)23)15-6-5-13(24)11-16(15)22-17(21)14(12-20)18(25)26-2/h4-7,11,19,22,24H,3,8-10,12H2,1-2H3
Instrument: Synapt (HDMS 1st gen)
Instrument type: ESI-QTOF
Ms type: MS2
Ion mode: POSITIVE
Ionization: ESI
Collision energy: 30 eV
Column name: Acquity CSHC18
Retention time: 10.492 min
Base peak: 353.1872
Precursor m/z: 353.1872
Precursor type: [M+H]+
Precursor intensity: 7334.69
m/z	relative intensity
136.1123	17
172.076	17
184.0759	22
186.0913	25
212.0713	35
244.0969	38
245.1004	42
265.136	43
293.1532	73
321.1583	92
322.1639	255
353.1881	999
