Mass spectrum: N-ACETYLSERINE; LC-ESI-QTOF; MS2; CE: 40;  [M-H]-
Name: N-ACETYLSERINE
Class: NA
Formula: C5H9NO4
Exact mass: 147.05316
SMILES: CC(=O)N[C@@H](CO)C(O)=O
InChI: InChI=1S/C5H9NO4/c1-3(8)6-4(2-7)5(9)10/h4,7H,2H2,1H3,(H,6,8)(H,9,10)/t4-/m0/s1
Instrument: Agilent 6530Â Q-TOF LC/MS
Instrument type: LC-ESI-QTOF
Ms type: MS2
Ion mode: NEGATIVE
Ionization: ESI
Collision energy: 40
Column name: NA
Retention time: 0.200 min
Base peak: 146.04862
Precursor m/z: 146.04862
Precursor type: [M-H]-
Precursor intensity: 131
m/z	relative intensity
40.0268	226
41.0197	234
42.0247	319
57.0388	589
74.033	999
