Mass spectrum: Citraconic acid; LC-ESI-ITFT; MS2; CE: 60;  [M-H]-
Name: Citraconic acid
Class: Lipids and lipid-like molecules; Fatty Acyls; Fatty acids and conjugates
Formula: C5H6O4
Exact mass: 130.02661
SMILES: C\C(=C\C(O)=O)C(O)=O
InChI: InChI=1S/C5H6O4/c1-3(5(8)9)2-4(6)7/h2H,1H3,(H,6,7)(H,8,9)/b3-2-
Instrument: Thermo Scientific Q-Exactive Focus
Instrument type: LC-ESI-ITFT
Ms type: MS2
Ion mode: NEGATIVE
Ionization: ESI
Collision energy: 60
Column name: Acquity CSHC18
Retention time: 1.762 min
Base peak: 129.01933
Precursor m/z: 129.01933
Precursor type: [M-H]-
m/z	relative intensity
56.9674	575
60.5904	537
72.5103	571
92.3947	611
92.5156	999
98.0559	588
114.1582	550
114.478	579
147.4429	650
147.6775	683
