Mass spectrum: (22S,25R)-22,26-Imino-5alpha-cholestan-3beta-ol; APCI-ITFT; MS2; CE: CID 35;  [M-H]-
Name: (22S,25R)-22,26-Imino-5alpha-cholestan-3beta-ol
Class: NA
Formula: C27H47NO
Exact mass: 401.36577
SMILES: C[C@@H](CN1)CC[C@H]1[C@@H](C)[C@H]2CC[C@@]3([H])[C@]4([H])CC[C@@]5([H])C[C@@H](O)CC[C@]5(C)[C@@]4([H])CC[C@]23C
InChI: InChI=1S/C27H47NO/c1-17-5-10-25(28-16-17)18(2)22-8-9-23-21-7-6-19-15-20(29)11-13-26(19,3)24(21)12-14-27(22,23)4/h17-25,28-29H,5-16H2,1-4H3/t17-,18+,19+,20+,21+,22-,23+,24+,25+,26+,27-/m1/s1
Instrument: Orbitrap Elite
Instrument type: APCI-ITFT
Ms type: MS2
Ion mode: NEGATIVE
Ionization: APCI
Collision energy: CID 35
Column name: Acquity CSHC18
Retention time: 0.134 min
Base peak: 400.35880
Precursor m/z: 400.35880
Precursor type: [M-H]-
Precursor intensity: 30423.02
m/z	relative intensity
327.2325	537
356.2219	241
372.2992	329
382.2984	241
382.3112	709
384.2949	327
398.3041	246
398.3449	255
399.9694	655
400.2288	268
400.3224	999
