Mass spectrum: Coniferyl ferulate; LC-ESI-QTOF; MS2; CE: 20-40eV;  [M+NH4]+
Name: Coniferyl ferulate
Class: Hydroxycinnamic acids and derivatives
Formula: C20H20O6
Exact mass: 356.1260
SMILES: COC=1C=C(C(=C(COC(C(=C(C=2C=CC(=C(C2)OC)O)[H])[H])=O)[H])[H])C=CC1O
InChI: InChI=1S/C20H20O6/c1-24-18-12-14(5-8-16(18)21)4-3-11-26-20(23)10-7-15-6-9-17(22)19(13-15)25-2/h3-10,12-13,21-22H,11H2,1-2H3
Instrument: Impact II, Bruker; Dionex 3000, Thermo Scientific
Instrument type: LC-ESI-QTOF
Ms type: MS2
Ion mode: POSITIVE
Ionization: ESI
Collision energy: 20-40eV
Column name: Acquity CSHC18
Retention time: 7.474 min
Base peak: 374.1599
Precursor m/z: 374.1599
Precursor type: [M+NH4]+
Precursor intensity: 54891.75
m/z	relative intensity
177.1436	999
