Mass spectrum: Fluprostenol methyl ester; ESI-TOF; MS2; CE: 0.6458333;  [M+H]+
Name: Fluprostenol methyl ester
Class: NA
Formula: C24H31F3O6
Exact mass: 472.20727
SMILES: O[C@@H]1[C@H](C/C=C\CCCC(OC)=O)[C@@H](/C=C/[C@@H](O)COC2=CC(C(F)(F)F)=CC=C2)[C@H](O)C1
InChI: InChI=1S/C24H31F3O6/c1-32-23(31)10-5-3-2-4-9-19-20(22(30)14-21(19)29)12-11-17(28)15-33-18-8-6-7-16(13-18)24(25,26)27/h2,4,6-8,11-13,17,19-22,28-30H,3,5,9-10,14-15H2,1H3/b4-2-,12-11+/t17-,19-,20-,21+,22-/m1/s1
Instrument: waters xevo g2 TOF
Instrument type: ESI-TOF
Ms type: MS2
Ion mode: POSITIVE
Ionization: ESI
Collision energy: 0.6458333
Column name: Acquity CSHC18
Retention time: 4.061 min
Base peak: 473.21527
Precursor m/z: 473.21527
Precursor type: [M+H]+
m/z	relative intensity
73.0646	22
79.0539	223
81.0704	237
83.0496	22
85.064	71
91.0541	787
93.0706	248
95.0484	29
101.0593	40
103.0545	69
105.0707	910
107.067	145
115.0658	188
116.0621	64
117.0705	720
118.0753	47
119.0861	664
120.0888	31
121.0283	113
127.0565	40
128.0625	165
129.0706	899
130.0751	146
131.0857	590
132.0901	47
133.1032	239
134.1049	18
135.047	53
141.0711	657
142.0777	261
143.0864	667
144.0904	62
145.1016	564
146.1062	34
147.1178	461
148.0853	14
154.0768	90
155.0854	999
156.0909	128
157.1027	456
158.1049	60
159.0448	107
161.1329	163
162.1184	9
165.0703	206
166.0777	334
167.084	160
168.0941	187
169.101	554
170.1038	77
171.1173	436
172.1187	54
173.0972	93
177.0688	8
178.0808	55
179.0851	245
180.092	20
181.1013	672
183.1169	989
184.1218	137
187.1126	82
189.1274	457
192.0945	125
193.1086	14
195.1117	33
197.0801	268
198.1341	58
199.026	83
200.1154	47
201.0757	86
207.1175	517
208.1198	64
213.128	16
215.1437	135
219.1373	46
221.1541	393
222.1566	41
225.0713	292
226.1306	132
231.1382	70
238.0384	14
239.0375	354
243.1383	367
244.1405	59
249.1456	21
255.0675	92
257.1533	505
258.1559	52
271.1108	12
275.1638	346
287.0941	395
292.0716	106
293.1754	161
295.0978	19
299.0888	25
303.0715	24
313.1055	30
329.0848	34
331.1221	693
332.1215	104
343.1104	13
345.1474	66
347.0941	86
348.0977	35
350.0976	79
357.0808	77
389.101	95
411.0721	71
413.0615	29
419.2217	21
436.0936	90
437.0991	40
439.2251	89
440.2311	24
449.125	756
451.1398	61
452.1033	26
453.0986	21
454.107	365
455.1063	82
461.1284	51
470.1615	20
