Mass spectrum: Tabersonine; ESI-QTOF; MS2; CE: 30 eV;  [M+H]+
Name: Tabersonine
Class: NA
Formula: C21H24N2O2
Exact mass: 336.1838
SMILES: CCC12C=CCN3CCC4(C5=CC=CC=C5NC4=C(C1)C(=O)OC)C23[H]
InChI: InChI=1S/C21H24N2O2/c1-3-20-9-6-11-23-12-10-21(19(20)23)15-7-4-5-8-16(15)22-17(21)14(13-20)18(24)25-2/h4-9,19,22H,3,10-13H2,1-2H3
Instrument: Synapt (HDMS 1st gen)
Instrument type: ESI-QTOF
Ms type: MS2
Ion mode: POSITIVE
Ionization: ESI
Collision energy: 30 eV
Column name: Acquity CSHC18
Retention time: 14.299 min
Base peak: 337.1916
Precursor m/z: 337.1916
Precursor type: [M+H]+
Precursor intensity: 31280.6
m/z	relative intensity
136.1121	15
156.0813	18
168.0792	19
170.0969	22
216.1025	24
228.1014	27
230.1193	38
249.1395	57
277.1655	89
305.1691	312
337.1932	999
