Mass spectrum: L-Sorbose; ESI-TOF; MS2; CE: 0.6458333;  [M+H]+
Name: L-Sorbose
Class: NA
Formula: C6H12O6
Exact mass: 180.06339
SMILES: OCC1(O)OCC(O)C(O)C1O
InChI: InChI=1S/C6H12O6/c7-2-6(11)5(10)4(9)3(8)1-12-6/h3-5,7-11H,1-2H2
Instrument: waters xevo g2 TOF
Instrument type: ESI-TOF
Ms type: MS2
Ion mode: POSITIVE
Ionization: ESI
Collision energy: 0.6458333
Column name: Acquity CSHC18
Retention time: 0.561 min
Base peak: 181.07139
Precursor m/z: 181.07139
Precursor type: [M+H]+
m/z	relative intensity
85.0293	3
96.9613	3
97.9665	999
114.9471	77
115.9648	3
130.0083	3
131.9525	42
135.9928	3
135.993	3
137.9882	3
138.9904	3
154.9672	3
168.9591	59
172.8632	44
185.9621	239
186.9691	214
187.0806	3
197.9616	95
200.0465	3
203.0532	235
204.0569	3
233.9831	32
234.9899	3
258.0028	3
279.9866	3
280.9966	3
322.0191	3
324.0146	25
325.0186	3
383.1177	21
414.0481	3
