Mass spectrum: Epicatechin gallate; LC-ESI-QFT; MS2; CE: NCE_15_30_63;  [M-H]-
Name: Epicatechin gallate
Class: NA
Formula: C22H18O10
Exact mass: 442.0900
SMILES: C1C(C(OC2=CC(=CC(=C21)O)O)C3=CC(=C(C=C3)O)O)OC(=O)C4=CC(=C(C(=C4)O)O)O
InChI: InChI=1S/C22H18O10/c23-11-6-14(25)12-8-19(32-22(30)10-4-16(27)20(29)17(28)5-10)21(31-18(12)7-11)9-1-2-13(24)15(26)3-9/h1-7,19,21,23-29H,8H2
Instrument: Thermo_Qexactive_Plus
Instrument type: LC-ESI-QFT
Ms type: MS2
Ion mode: NEGATIVE
Ionization: ESI
Collision energy: NCE_15_30_63
Column name: Acquity CSHC18
Retention time: 4.452 min
Base peak: 441.0834
Precursor m/z: 441.0834
Precursor type: [M-H]-
Precursor intensity: 645695700
m/z	relative intensity
50.7043	33
51.0077	33
90.1243	33
96.7219	34
97.0285	34
105.9183	34
109.028	34
121.0282	34
123.0258	35
125.0249	36
126.0261	36
137.0234	36
145.0287	36
149.0223	37
151.0396	37
161.0606	39
162.3478	40
165.0183	42
168.0049	43
169.0143	44
170.017	44
172.43	44
175.0408	45
179.0343	46
187.039	47
193.0136	52
194.0171	52
199.0925	56
202.063	62
203.0718	62
205.0322	67
218.8484	77
227.0727	91
245.0674	91
246.0831	94
247.0618	97
253.051	109
254.4312	114
259.0597	122
260.0623	125
271.0607	146
272.0661	153
287.0559	171
289.0709	187
290.0742	197
303.0516	299
304.5811	387
315.0509	616
331.0474	733
397.0946	934
441.0931	999
