Mass spectrum: Folic acid; LC-ESI-QTOF; MS2; CE: 25.66;  [M+H]+
Name: Folic acid
Class: NA
Formula: C19H19N7O6
Exact mass: 441.1397
SMILES: C1=CC(=CC=C1C(=O)NC(CCC(=O)O)C(=O)O)NCC2=CN=C3C(=N2)C(=O)N=C(N3)N
InChI: InChI=1S/C19H19N7O6/c20-19-25-15-14(17(30)26-19)23-11(8-22-15)7-21-10-3-1-9(2-4-10)16(29)24-12(18(31)32)5-6-13(27)28/h1-4,8,12,21H,5-7H2,(H,24,29)(H,27,28)(H,31,32)(H3,20,22,25,26,30)
Instrument: Bruker MicrOTOF-Q
Instrument type: LC-ESI-QTOF
Ms type: MS2
Ion mode: POSITIVE
Ionization: ESI
Collision energy: 25.66
Column name: Acquity CSHC18
Retention time: NA
Base peak: 442.1470
Precursor m/z: 442.1470
Precursor type: [M+H]+
m/z	relative intensity
120.0428	24
121.0456	1
176.0561	116
177.0592	13
178.0699	1
250.0742	1
265.081	1
266.0894	2
267.0978	3
269.1148	1
278.0652	1
293.0764	15
294.0806	3
294.9264	2
295.0932	999
295.529	1
295.6174	1
296.0954	160
297.0976	19
298.1016	1
311.0885	1
313.1034	17
314.1043	3
