Mass spectrum: Methylmalonic acid; LC-ESI-ITFT; MS2; CE: 30;  [M-H]-
Name: Methylmalonic acid
Class: Organic acids and derivatives; Carboxylic acids and derivatives; Dicarboxylic acids and derivatives
Formula: C4H6O4
Exact mass: 118.02661
SMILES: CC(C(O)=O)C(O)=O
InChI: InChI=1S/C4H6O4/c1-2(3(5)6)4(7)8/h2H,1H3,(H,5,6)(H,7,8)
Instrument: Thermo Scientific Q-Exactive Focus
Instrument type: LC-ESI-ITFT
Ms type: MS2
Ion mode: NEGATIVE
Ionization: ESI
Collision energy: 30
Column name: Acquity CSHC18
Retention time: 0.925 min
Base peak: 117.01933
Precursor m/z: 117.01933
Precursor type: [M-H]-
m/z	relative intensity
55.0178	999
60.4477	16
73.0282	23
74.1658	17
92.2476	15
95.5491	15
99.9246	65
120.7807	18
126.7724	17
134.6489	18
