Mass spectrum: Piriprost (potassium salt); ESI-TOF; MS2; CE: 6.0000000;  [M+H]+
Name: Piriprost (potassium salt)
Class: NA
Formula: C26H35NO4
Exact mass: 425.25661
SMILES: CCCCC[C@H](O)/C=C/[C@H]1[C@H](O)CC2=C1C=C(CCCCC(O)=O)N2C3=CC=CC=C3
InChI: InChI=1S/C26H35NO4/c1-2-3-5-13-21(28)15-16-22-23-17-20(12-8-9-14-26(30)31)27(24(23)18-25(22)29)19-10-6-4-7-11-19/h4,6-7,10-11,15-17,21-22,25,28-29H,2-3,5,8-9,12-14,18H2,1H3,(H,30,31)/b16-15+/t21-,22+,25+/m0/s1
Instrument: waters xevo g2 TOF
Instrument type: ESI-TOF
Ms type: MS2
Ion mode: POSITIVE
Ionization: ESI
Collision energy: 6.0000000
Column name: Acquity CSHC18
Retention time: 4.282 min
Base peak: 426.26461
Precursor m/z: 426.26461
Precursor type: [M+H]+
m/z	relative intensity
127.9789	11
223.6012	5
230.5927	4
237.5999	1
256.1342	10
257.133	1
296.1279	3
299.112	1
336.1596	6
404.2238	7
407.2417	23
408.2541	999
409.2569	301
410.2601	41
422.2328	77
423.238	32
424.2485	260
425.2531	63
426.2641	799
427.2658	110
