Mass spectrum: THYMIDINE-MONOPHOSPHATE; LC-ESI-QFT; MS2; CE: 30eV;  [M+H]+
Name: THYMIDINE-MONOPHOSPHATE
Class: NA
Formula: C10H15N2O8P
Exact mass: 322.05660
SMILES: CC1=CN([C@H]2C[C@H](O)[C@@H](COP(O)(O)=O)O2)C(=O)NC1=O
InChI: InChI=1S/C10H15N2O8P/c1-5-3-12(10(15)11-9(5)14)8-2-6(13)7(20-8)4-19-21(16,17)18/h3,6-8,13H,2,4H2,1H3,(H,11,14,15)(H2,16,17,18)/t6-,7+,8+/m0/s1
Instrument: Q-Exactive Orbitrap, Thermo Scientfic; Ultimate 3000 HPLC, Thermo Scientfic
Instrument type: LC-ESI-QFT
Ms type: MS2
Ion mode: POSITIVE
Ionization: ESI
Collision energy: 30eV
Column name: Acquity CSHC18
Retention time: 0.880 min
Base peak: 323.0639
Precursor m/z: 323.0639
Precursor type: [M+H]+
Precursor intensity: 112
m/z	relative intensity
51.1712	3
52.4013	2
52.4222	3
53.0395	8
53.6483	2
54.8826	3
57.0418	3
64.8086	2
67.5714	3
81.0343	999
82.0376	37
85.9598	3
86.6567	2
97.0008	3
113.5942	3
118.0376	4
127.0507	37
138.494	3
142.4913	3
152.5698	3
263.9763	4
