Mass spectrum: 2,5-DIHYDROXYBENZOATE; LC-ESI-QTOF; MS2; CE: 20;  [M-H]-
Name: 2,5-DIHYDROXYBENZOATE
Class: NA
Formula: C7H6O4
Exact mass: 154.02661
SMILES: OC(=O)C1=CC(O)=CC=C1O
InChI: InChI=1S/C7H6O4/c8-4-1-2-6(9)5(3-4)7(10)11/h1-3,8-9H,(H,10,11)
Instrument: Agilent 6530Â Q-TOF LC/MS
Instrument type: LC-ESI-QTOF
Ms type: MS2
Ion mode: NEGATIVE
Ionization: ESI
Collision energy: 20
Column name: NA
Retention time: 0.200 min
Base peak: 153.01740
Precursor m/z: 153.01740
Precursor type: [M-H]-
Precursor intensity: 177
m/z	relative intensity
108.048	335
109.0398	999
