Mass spectrum: Inosine 5'-monophosphate; LC-ESI-QTOF; MS2; CE: 35.00;  [M+H]+
Name: Inosine 5'-monophosphate
Class: NA
Formula: C10H13N4O8P
Exact mass: 348.0471
SMILES: C1=NC(=O)C2=C(N1)N(C=N2)C3C(C(C(O3)COP(=O)(O)O)O)O
InChI: InChI=1S/C10H13N4O8P/c15-6-4(1-21-23(18,19)20)22-10(7(6)16)14-3-13-5-8(14)11-2-12-9(5)17/h2-4,6-7,10,15-16H,1H2,(H,11,12,17)(H2,18,19,20)
Instrument: Bruker MicrOTOF-Q
Instrument type: LC-ESI-QTOF
Ms type: MS2
Ion mode: POSITIVE
Ionization: ESI
Collision energy: 35.00
Column name: Acquity CSHC18
Retention time: NA
Base peak: 349.0548
Precursor m/z: 349.0548
Precursor type: [M+H]+
m/z	relative intensity
110.0333	15
119.0321	78
137.0447	999
138.048	85
139.0516	13
