Mass spectrum: 5-hydroxy-L-tryptophan; LC-ESI-QTOF; MS2; CE: -10, -35, -60V;  [M-H]-
Name: 5-hydroxy-L-tryptophan
Class: NA
Formula: C11H12N2O3
Exact mass: 220.0848
SMILES: C1=CC2=C(C=C1O)C(=CN2)CC(C(=O)O)N
InChI: InChI=1S/C11H12N2O3/c12-9(11(15)16)3-6-5-13-10-2-1-7(14)4-8(6)10/h1-2,4-5,9,13-14H,3,12H2,(H,15,16)
Instrument: TripleToF 5600; Sciex
Instrument type: LC-ESI-QTOF
Ms type: MS2
Ion mode: NEGATIVE
Ionization: ESI
Collision energy: -10, -35, -60V
Column name: Acquity CSHC18
Retention time: 0.808 min
Base peak: 219.0751
Precursor m/z: 219.0751
Precursor type: [M-H]-
Precursor intensity: 34320.63
m/z	relative intensity
118.0292	37
131.043	62
132.0484	102
133.0528	13
144.0333	278
144.0452	285
146.0325	167
147.0322	890
148.0386	83
158.0631	46
159.0301	103
160.041	232
161.0426	26
172.0406	132
173.0474	91
174.0535	23
175.083	38
187.0519	20
189.0691	734
190.0719	92
219.0793	999
