Mass spectrum: 5-azacytidine; LC-ESI-QTOF; MS2; CE: -10, -35, -60V;  [M-H]-
Name: 5-azacytidine
Class: NA
Formula: C8H12N4O5
Exact mass: 244.0808
SMILES: C1=NC(=NC(=O)N1C2C(C(C(O2)CO)O)O)N
InChI: InChI=1S/C8H12N4O5/c9-7-10-2-12(8(16)11-7)6-5(15)4(14)3(1-13)17-6/h2-6,13-15H,1H2,(H2,9,11,16)
Instrument: TripleToF 5600; Sciex
Instrument type: LC-ESI-QTOF
Ms type: MS2
Ion mode: NEGATIVE
Ionization: ESI
Collision energy: -10, -35, -60V
Column name: Acquity CSHC18
Retention time: 0.770 min
Base peak: 243.0749
Precursor m/z: 243.0749
Precursor type: [M-H]-
Precursor intensity: 105104.1
m/z	relative intensity
68.0152	101
69.0118	44
82.0413	65
84.0105	710
85.0162	41
86.037	354
99.0138	26
110.0372	130
126.0201	35
128.0454	109
158.1216	29
169.041	14
171.0584	220
172.055	20
174.0419	999
175.0415	95
189.9583	42
196.9733	37
200.072	338
201.0576	65
201.0716	60
216.0796	20
218.0804	288
243.0681	218
243.0769	216
