Mass spectrum: 1-Methylhistidine; ESI-TOF; MS2; CE: 6.0000000;  [M+H]+
Name: 1-Methylhistidine
Class: NA
Formula: C7H11N3O2
Exact mass: 169.08513
SMILES: CN1C=NC(CC(N)C(O)=O)=C1
InChI: InChI=1S/C7H11N3O2/c1-10-3-5(9-4-10)2-6(8)7(11)12/h3-4,6H,2,8H2,1H3,(H,11,12)
Instrument: waters xevo g2 TOF
Instrument type: ESI-TOF
Ms type: MS2
Ion mode: POSITIVE
Ionization: ESI
Collision energy: 6.0000000
Column name: Acquity CSHC18
Retention time: 0.480 min
Base peak: 170.09313
Precursor m/z: 170.09313
Precursor type: [M+H]+
m/z	relative intensity
83.0614	3
97.0764	1
109.0766	31
110.08	2
124.0877	44
125.09	64
126.1025	13
129.9807	1
140.9961	6
145.0176	1
152.0428	2
153.0662	7
154.9917	2
160.99	1
170.093	999
171.0961	98
172.0974	8
179.0146	5
184.9863	6
186.9832	2
192.0743	11
198.0328	1
225.0195	1
246.8646	1
270.0192	1
302.1454	1
348.0994	1
363.1356	1
377.1256	1
390.0949	1
392.0896	21
393.0959	13
394.0968	2
395.0966	2
415.0794	4
417.0798	1
561.1642	1
583.1551	4
584.1595	1
616.1015	2
784.1752	2
786.183	1
807.1674	2
808.1678	1
809.1627	1
