Mass spectrum: Vitamin_D3_(Cholecalciferol); APCI-ITFT; MS2; CE: CID 45;  [M-H]-
Name: Vitamin_D3_(Cholecalciferol)
Class: NA
Formula: C27H44O
Exact mass: 384.33922
SMILES: CC(C)CCCC(C)C1CCC2C1(CCCC2=CC=C3CC(CCC3=C)O)C
InChI: InChI=1S/C27H44O/c1-19(2)8-6-9-21(4)25-15-16-26-22(10-7-17-27(25,26)5)12-13-23-18-24(28)14-11-20(23)3/h12-13,19,21,24-26,28H,3,6-11,14-18H2,1-2,4-5H3
Instrument: Orbitrap Elite
Instrument type: APCI-ITFT
Ms type: MS2
Ion mode: NEGATIVE
Ionization: APCI
Collision energy: CID 45
Column name: Acquity CSHC18
Retention time: 1.118 min
Base peak: 383.33290
Precursor m/z: 383.33290
Precursor type: [M-H]-
Precursor intensity: 9997.99
m/z	relative intensity
327.2701	127
339.2702	113
353.2851	103
356.2233	99
356.2635	128
365.2846	999
366.2888	354
