Mass spectrum: Maltitol; ESI-TOF; MS2; CE: 6.0000000;  [M+H]+
Name: Maltitol
Class: NA
Formula: C12H24O11
Exact mass: 344.13186
SMILES: OCC(O)C(O)C(OC1OC(CO)C(O)C(O)C1O)C(O)CO
InChI: InChI=1S/C12H24O11/c13-1-4(16)7(18)11(5(17)2-14)23-12-10(21)9(20)8(19)6(3-15)22-12/h4-21H,1-3H2
Instrument: waters xevo g2 TOF
Instrument type: ESI-TOF
Ms type: MS2
Ion mode: POSITIVE
Ionization: ESI
Collision energy: 6.0000000
Column name: Acquity CSHC18
Retention time: 0.554 min
Base peak: 345.13986
Precursor m/z: 345.13986
Precursor type: [M+H]+
m/z	relative intensity
69.0346	24
83.0493	27
99.0447	1
111.0446	89
129.0554	389
130.058	14
137.9883	581
147.0663	338
154.9906	95
156.9911	14
163.9767	14
165.0761	460
166.08	21
170.9721	1
173.981	34
183.0871	999
184.0899	51
202.0598	1
205.0681	1
237.005	20
278.0322	83
296.0188	1
345.1399	59
364.1136	51
367.1211	842
368.1239	98
380.0413	34
383.0918	14
398.0467	371
399.0562	92
418.0768	26
580.1312	15
689.2741	27
711.2524	84
712.2513	37
742.1838	125
743.1852	62
