Mass spectrum: Heliangine; LC-ESI-ITFT; MS2; CE: 50eV;  [M+H]+
Name: Heliangine
Class: Sesquiterpenelactone; Heliangolide
Formula: C20H26O6
Exact mass: 362.1729
SMILES: C/C=C(\C)/C(=O)O[C@@H]1C[C@@]2([C@H](O2)C[C@@H](/C(=C\[C@@H]3[C@@H]1C(=C)C(=O)O3)/C)O)C
InChI: InChI=1S/C20H26O6/c1-6-10(2)18(22)25-15-9-20(5)16(26-20)8-13(21)11(3)7-14-17(15)12(4)19(23)24-14/h6-7,13-17,21H,4,8-9H2,1-3,5H3/b10-6+,11-7-/t13-,14+,15+,16+,17-,20+/m0/s1
Instrument: Q Exactive Plus, ThermoFisher Scientific
Instrument type: LC-ESI-ITFT
Ms type: MS2
Ion mode: POSITIVE
Ionization: ESI
Collision energy: 50eV
Column name: Acquity CSHC18
Retention time: 6.376 min
Base peak: 363.1805
Precursor m/z: 363.1805
Precursor type: [M+H]+
Precursor intensity: 221867200
m/z	relative intensity
55.055	461
65.7098	23
68.7523	168
83.0501	999
87.9585	23
91.0548	34
93.0704	34
95.05	607
97.065	54
97.4406	95
109.065	27
117.0705	124
119.0856	114
121.0647	25
131.0855	36
135.0805	25
145.0647	46
145.1011	35
155.0858	37
157.102	31
159.0795	32
163.0753	27
171.1173	25
173.0939	36
181.1002	46
199.1111	48
290.2755	21
302.3472	24
