Mass spectrum: Uridine diphosphate glucose; LC-ESI-ITFT; MS2; CE: 60;  [M-H]-
Name: Uridine diphosphate glucose
Class: Nucleosides, nucleotides, and analogues; Pyrimidine nucleotides; Pyrimidine nucleotide sugars
Formula: C15H24N2O17P2
Exact mass: 566.05502
SMILES: OC[C@@H]1OC(OP(O)(=O)OP(O)(=O)OC[C@@H]2O[C@@H]([C@@H](O)[C@H]2O)N2C=CC(=O)NC2=O)[C@@H](O)[C@H](O)[C@H]1O
InChI: InChI=1S/C15H24N2O17P2/c18-3-5-8(20)10(22)12(24)14(32-5)33-36(28,29)34-35(26,27)30-4-6-9(21)11(23)13(31-6)17-2-1-7(19)16-15(17)25/h1-2,5-6,8-14,18,20-24H,3-4H2,(H,26,27)(H,28,29)(H,16,19,25)/t5-,6-,8-,9-,10+,11-,12-,13-,14?/m0/s1
Instrument: Thermo Scientific Q-Exactive Focus
Instrument type: LC-ESI-ITFT
Ms type: MS2
Ion mode: NEGATIVE
Ionization: ESI
Collision energy: 60
Column name: Acquity CSHC18
Retention time: 2.026 min
Base peak: 565.04773
Precursor m/z: 565.04773
Precursor type: [M-H]-
m/z	relative intensity
78.9578	999
96.9684	390
111.0188	97
120.9684	25
138.979	32
150.9791	30
158.9243	171
211.0006	16
241.0115	32
272.957	16
