Mass spectrum: Uridine; LC-ESI-ITFT; MS2; CE: 20;  [M-H]-
Name: Uridine
Class: Nucleosides, nucleotides, and analogues; Pyrimidine nucleosides
Formula: C9H12N2O6
Exact mass: 244.06954
SMILES: OC[C@H]1O[C@H]([C@H](O)[C@@H]1O)N1C=CC(=O)NC1=O
InChI: InChI=1S/C9H12N2O6/c12-3-4-6(14)7(15)8(17-4)11-2-1-5(13)10-9(11)16/h1-2,4,6-8,12,14-15H,3H2,(H,10,13,16)/t4-,6-,7-,8-/m1/s1
Instrument: Thermo Scientific Q-Exactive Focus
Instrument type: LC-ESI-ITFT
Ms type: MS2
Ion mode: NEGATIVE
Ionization: ESI
Collision energy: 20
Column name: Acquity CSHC18
Retention time: 0.647 min
Base peak: 243.06226
Precursor m/z: 243.06226
Precursor type: [M-H]-
m/z	relative intensity
66.0337	112
82.0286	257
108.0443	26
110.0236	999
111.0188	50
122.0236	89
124.0392	26
140.0342	68
152.0343	110
200.0557	30
