Mass spectrum: CREATININE; LC-ESI-QTOF; MS2; CE: 40;  [M-H]-
Name: CREATININE
Class: NA
Formula: C4H7N3O
Exact mass: 113.05891
SMILES: CN1CC(=O)NC1=N
InChI: InChI=1S/C4H7N3O/c1-7-2-3(8)6-4(7)5/h2H2,1H3,(H2,5,6,8)
Instrument: Agilent 6530Â Q-TOF LC/MS
Instrument type: LC-ESI-QTOF
Ms type: MS2
Ion mode: NEGATIVE
Ionization: ESI
Collision energy: 40
Column name: NA
Retention time: 0.200 min
Base peak: 112.05222
Precursor m/z: 112.05222
Precursor type: [M-H]-
m/z	relative intensity
40.0087	146
41.0253	331
42.0044	999
