Mass spectrum: Attenoside; LC-ESI-QTOF; MS2; CE: 17.5eV;  [M+NH4]+
Name: Attenoside
Class: Diterpene
Formula: C44H74O21
Exact mass: 938.4723
SMILES: C[C@H]1[C@@H]([C@H]([C@H]([C@@H](O1)O[C@@H]2[C@H](O[C@H]([C@@H]([C@H]2O)O)O[C@@](C)(CC/C=C(\C)/CC/C=C(\C)/CC/C=C(/C)\CO[C@H]3[C@@H]([C@H]([C@@H]([C@H](O3)CO)O)O)O[C@H]4[C@@H]([C@H]([C@@H]([C@H](O4)CO)O)O)O)C=C)CO)O)O)O
InChI: InChI=1S/C44H74O21/c1-7-44(6,65-42-37(57)34(54)38(27(19-47)62-42)63-40-35(55)31(51)28(48)24(5)59-40)16-10-15-22(3)12-8-11-21(2)13-9-14-23(4)20-58-43-39(33(53)30(50)26(18-46)61-43)64-41-36(56)32(52)29(49)25(17-45)60-41/h7,11,14-15,24-43,45-57H,1,8-10,12-13,16-20H2,2-6H3/b21-11+,22-15+,23-14-/t24-,25+,26+,27+,28-,29+,30+,31+,32-,33-,34+,35+,36+,37+,38+,39+,40-,41-,42-,43+,44+/m0/s1
Instrument: Impact II qTOF
Instrument type: LC-ESI-QTOF
Ms type: MS2
Ion mode: POSITIVE
Ionization: ESI
Collision energy: 17.5eV
Column name: Acquity CSH C18 column (particle size 1.7 μm, column length 2.1 × 50 mm) (Waters)
Retention time: 18.8 min
Base peak: 956.5044
Precursor m/z: 956.5044
Precursor type: [M+NH4]+
m/z	relative intensity
147.0657	56
149.1326	22
163.0599	44
163.1479	22
177.1631	27
215.1791	31
271.242	935
272.2449	179
273.0967	77
273.2522	21
289.253	152
290.2561	36
309.1181	539
310.122	57
325.1133	222
326.1168	32
327.1274	57
417.3	123
418.3031	24
433.2944	36
435.3104	52
451.306	54
471.1709	443
472.1748	94
489.1801	59
579.3541	23
597.3635	76
598.3674	23
613.3584	34
633.2228	47
759.4167	83
760.4196	49
921.4691	22
939.4786	35
956.5044	999
