Mass spectrum: 5-HYDROXYTRYPTOPHAN; LC-ESI-QTOF; MS2; CE: 10;  [M+H]+
Name: 5-HYDROXYTRYPTOPHAN
Class: NA
Formula: C11H12N2O3
Exact mass: 220.08479
SMILES: N[C@@H](CC1=CNC2=C1C=C(O)C=C2)C(O)=O
InChI: InChI=1S/C11H12N2O3/c12-9(11(15)16)3-6-5-13-10-2-1-7(14)4-8(6)10/h1-2,4-5,9,13-14H,3,12H2,(H,15,16)/t9-/m0/s1
Instrument: Agilent 6530Â Q-TOF LC/MS
Instrument type: LC-ESI-QTOF
Ms type: MS2
Ion mode: POSITIVE
Ionization: ESI
Collision energy: 10
Column name: NA
Retention time: 0.200 min
Base peak: 221.09239
Precursor m/z: 221.09239
Precursor type: [M+H]+
Precursor intensity: 152.5
m/z	relative intensity
64.0002	31
74.025	32
77.0407	33
79.0507	33
90.0481	33
103.0578	33
106.064	36
107.046	37
115.056	40
116.0541	42
117.0657	44
130.0605	46
131.069	46
132.088	46
133.058	51
134.0913	54
143.0666	56
146.0675	63
148.0796	70
158.0763	73
159.0614	75
160.104	96
162.0971	122
162.3708	158
175.0989	173
186.0802	259
204.275	288
204.7184	712
220.1384	999
221.1301	31
