Mass spectrum: Putative_Betavulgaroside IV; LC-ESI-QTOF; MS2; CE: 20-40eV;  [M+NH4]+
Name: Putative_Betavulgaroside IV
Class: Triterpene saponins
Formula: C41H62O15
Exact mass: 794.4089
SMILES: CC1(C)CCC2(CCC3(C)C(=CCC4(C5(C)CCC(C(C)(C)C5(CCC43C)[H])(OC6(C(C(C(C(C(=O)O)(O6)[H])(O)[H])(OC(C(C(=O)O)(O)[H])(OCC(=O)O)[H])[H])(O)[H])[H])[H])[H])C2(C1)[H])C(=O)O
InChI: InChI=1S/C41H62O15/c1-36(2)14-16-41(35(51)52)17-15-39(6)20(21(41)18-36)8-9-23-38(5)12-11-24(37(3,4)22(38)10-13-40(23,39)7)54-34-27(45)29(26(44)30(56-34)32(49)50)55-33(28(46)31(47)48)53-19-25(42)43/h8,21-24,26-30,33-34,44-46H,9-19H2,1-7H3,(H,42,43)(H,47,48)(H,49,50)(H,51,52)
Instrument: Impact II, Bruker; Dionex 3000, Thermo Scientific
Instrument type: LC-ESI-QTOF
Ms type: MS2
Ion mode: POSITIVE
Ionization: ESI
Collision energy: 20-40eV
Column name: Acquity CSHC18
Retention time: 17.833 min
Base peak: 812.4428
Precursor m/z: 812.4428
Precursor type: [M+NH4]+
Precursor intensity: 9285.38
m/z	relative intensity
97.0821	999
