Mass spectrum: Adipic acid; LC-ESI-QTOF; MS2; CE: 7-62eV;  [M-H]-
Name: Adipic acid
Class: Fatty acid
Formula: C6H10O4
Exact mass: 146.0579
SMILES: C(CCC(=O)O)CC(=O)O
InChI: InChI=1S/C6H10O4/c7-5(8)3-1-2-4-6(9)10/h1-4H2,(H,7,8)(H,9,10)
Instrument: Bruker MicrOTOF-Q
Instrument type: LC-ESI-QTOF
Ms type: MS2
Ion mode: NEGATIVE
Ionization: ESI
Collision energy: 7-62eV
Column name: Acquity CSHC18
Retention time: 5.076 min
Base peak: 145.0507
Precursor m/z: 145.0507
Precursor type: [M-H]-
Precursor intensity: 14717.94
m/z	relative intensity
101.0634	265
145.0546	999
