Mass spectrum: Kaempferol 3-O-beta-(alpha-Rha(1->2)-Glc)-7-O-alpha-Rha (K 3-(Rha-Glc)-7-Rha); LC-ESI-QTOF; MS2; CE: 42.24;  [M+H]+
Name: Kaempferol 3-O-beta-(alpha-Rha(1->2)-Glc)-7-O-alpha-Rha (K 3-(Rha-Glc)-7-Rha)
Class: NA
Formula: C33H40O19
Exact mass: 740.2164
SMILES: CC1C(C(C(C(O1)OC2C(C(C(OC2OC3=C(OC4=CC(=CC(=C4C3=O)O)OC5C(C(C(C(O5)C)O)O)O)C6=CC=C(C=C6)O)CO)O)O)O)O)O
InChI: InChI=1S/C33H40O19/c1-10-19(37)23(41)26(44)31(46-10)48-14-7-15(36)18-16(8-14)49-28(12-3-5-13(35)6-4-12)29(22(18)40)51-33-30(25(43)21(39)17(9-34)50-33)52-32-27(45)24(42)20(38)11(2)47-32/h3-8,10-11,17,19-21,23-27,30-39,41-45H,9H2,1-2H3
Instrument: Bruker MicrOTOF-Q
Instrument type: LC-ESI-QTOF
Ms type: MS2
Ion mode: POSITIVE
Ionization: ESI
Collision energy: 42.24
Column name: Acquity CSHC18
Retention time: NA
Base peak: 741.2250
Precursor m/z: 741.2250
Precursor type: [M+H]+
m/z	relative intensity
286.7105	1
286.9001	2
287.0564	999
287.2813	1
287.3572	2
287.6561	1
288.0596	165
289.0627	21
290.0614	2
329.067	1
433.1163	2
