Mass spectrum: Norepinephrine; LC-ESI-ITFT; MS2; CE: 100;  [M+H]+
Name: Norepinephrine
Class: Benzenoids; Phenols; Benzenediols
Formula: C8H11NO3
Exact mass: 169.07389
SMILES: NC[C@H](O)C1=CC(O)=C(O)C=C1
InChI: InChI=1S/C8H11NO3/c9-4-8(12)5-1-2-6(10)7(11)3-5/h1-3,8,10-12H,4,9H2/t8-/m0/s1
Instrument: Thermo Scientific Q-Exactive Focus
Instrument type: LC-ESI-ITFT
Ms type: MS2
Ion mode: POSITIVE
Ionization: ESI
Collision energy: 100
Column name: Acquity CSHC18
Retention time: 2.570 min
Base peak: 170.08118
Precursor m/z: 170.08118
Precursor type: [M+H]+
m/z	relative intensity
50.0157	999
51.0235	651
53.0028	252
55.935	52
56.5424	41
61.0078	150
62.0157	369
63.0235	305
92.5226	62
147.2675	36
