Mass spectrum: Aloin; LC-ESI-QTOF; MS2; CE: 35.00;  [M+H]+
Name: Aloin
Class: NA
Formula: C21H22O9
Exact mass: 418.1264
SMILES: C1=CC2=C(C(=C1)O)C(=O)C3=C(C2C4C(C(C(C(O4)CO)O)O)O)C=C(C=C3O)CO
InChI: InChI=1S/C21H22O9/c22-6-8-4-10-14(21-20(29)19(28)17(26)13(7-23)30-21)9-2-1-3-11(24)15(9)18(27)16(10)12(25)5-8/h1-5,13-14,17,19-26,28-29H,6-7H2
Instrument: Bruker MicrOTOF-Q
Instrument type: LC-ESI-QTOF
Ms type: MS2
Ion mode: POSITIVE
Ionization: ESI
Collision energy: 35.00
Column name: Acquity CSHC18
Retention time: NA
Base peak: 419.1339
Precursor m/z: 419.1339
Precursor type: [M+H]+
m/z	relative intensity
165.0693	153
181.0639	41
183.0801	22
193.0646	164
194.0691	26
209.0583	68
210.0662	33
211.0751	798
212.0781	114
221.0599	103
222.0634	23
226.0625	110
227.0698	123
228.0735	21
239.0696	999
240.0732	188
241.0774	25
255.0662	19
256.074	22
257.0791	60
