Mass spectrum: Zaluzanin C, 15-hydroxy; LC-ESI-ITFT; MS2; CE: 50eV;  [M+H]+
Name: Zaluzanin C, 15-hydroxy
Class: Sesquiterpenelactone; Guaianolide
Formula: C15H20O4
Exact mass: 264.1362
SMILES: O=C3O[C@H]1[C@@H](CCC(=C)[C@@H]2CC(O)C(CO)[C@H]12)C3=C
InChI: InChI=1S/C15H20O4/c1-7-3-4-9-8(2)15(18)19-14(9)13-10(7)5-12(17)11(13)6-16/h9-14,16-17H,1-6H2/t9-,10-,11?,12?,13+,14-/m0/s1
Instrument: Q Exactive Plus, ThermoFisher Scientific
Instrument type: LC-ESI-ITFT
Ms type: MS2
Ion mode: POSITIVE
Ionization: ESI
Collision energy: 50eV
Column name: Acquity CSHC18
Retention time: 5.442 min
Base peak: 265.1429
Precursor m/z: 265.1429
Precursor type: [M+H]+
Precursor intensity: 184295700
m/z	relative intensity
70.0802	7
81.0706	8
91.0549	5
93.0697	7
105.0701	16
117.0706	7
119.0858	6
129.0695	16
131.0859	34
133.1015	15
141.0692	34
143.0855	41
145.1014	24
147.1164	5
153.0906	5
155.0862	35
157.1003	39
159.08	51
159.1159	21
161.0969	9
169.1017	10
171.1178	28
173.0597	46
173.0963	17
173.1331	148
177.0909	5
181.1005	8
183.1167	399
185.0974	6
185.1332	24
187.0739	8
187.1122	35
189.0922	9
189.1267	9
193.1008	24
199.1113	22
201.1277	831
202.1297	20
203.1063	5
205.1226	9
207.1011	20
211.1128	163
217.1215	46
219.1377	47
222.7158	5
229.121	999
230.1241	21
247.1335	818
248.1351	9
265.1442	224
