Mass spectrum: N-Dodecanoyl-L-homoserine lactone; LC-ESI-ITFT; MS2; CE: 60;  [M+H]+
Name: N-Dodecanoyl-L-homoserine lactone
Class: NA
Formula: C16H29NO3
Exact mass: 283.21474
SMILES: CCCCCCCCCCCC(=O)N[C@H]1CCOC1=O
InChI: InChI=1S/C16H29NO3/c1-2-3-4-5-6-7-8-9-10-11-15(18)17-14-12-13-20-16(14)19/h14H,2-13H2,1H3,(H,17,18)/t14-/m0/s1
Instrument: Thermo Scientific Q-Exactive Focus
Instrument type: LC-ESI-ITFT
Ms type: MS2
Ion mode: POSITIVE
Ionization: ESI
Collision energy: 60
Column name: Acquity CSHC18
Retention time: 1.753 min
Base peak: 284.22202
Precursor m/z: 284.22202
Precursor type: [M+H]+
m/z	relative intensity
55.0548	466
56.05	786
57.0704	999
65.039	62
67.0547	603
74.0241	406
74.0605	156
79.0546	89
81.0703	124
95.0858	99
