Mass spectrum: Kaempferol; LC-ESI-QTOF; MS2; CE: 15.00;  [M-H]-
Name: Kaempferol
Class: NA
Formula: C15H10O6
Exact mass: 286.0477
SMILES: C1=CC(=CC=C1C2=C(C(=O)C3=C(C=C(C=C3O2)O)O)O)O
InChI: InChI=1S/C15H10O6/c16-8-3-1-7(2-4-8)15-14(20)13(19)12-10(18)5-9(17)6-11(12)21-15/h1-6,16-18,20H
Instrument: Bruker MicrOTOF-Q
Instrument type: LC-ESI-QTOF
Ms type: MS2
Ion mode: NEGATIVE
Ionization: ESI
Collision energy: 15.00
Column name: Acquity CSHC18
Retention time: NA
Base peak: 285.0405
Precursor m/z: 285.0405
Precursor type: [M-H]-
m/z	relative intensity
51.4075	68
61.4457	77
62.14	49
64.3707	51
89.4635	70
97.2501	43
100.2999	48
112.0048	41
119.3541	51
123.0064	60
127.7595	64
130.6616	51
133.9706	79
138.5247	54
144.0294	60
148.0409	69
150.546	64
155.0514	90
163.668	39
185.0578	81
187.0712	64
189.5036	56
195.0486	92
198.0295	60
199.3833	66
201.0542	81
209.0292	83
211.0329	92
213.0596	115
214.0302	134
217.0464	45
219.0252	54
219.6313	52
229.6075	56
238.2419	47
241.0038	90
246.8075	43
250.6839	83
254.1679	71
255.0507	88
255.7656	56
257.0451	115
257.911	51
267.0389	49
269.4089	37
278.0336	54
284.9094	999
286.046	98
321.5903	51
355.4354	41
398.7011	56
434.6618	41
462.913	64
474.293	45
502.505	49
521.7751	47
533.8814	37
579.758	45
610.988	37
690.1619	51
731.9158	62
745.5549	54
767.5629	51
819.351	64
885.8299	51
907.31	54
916.99	49
