Mass spectrum: zymosterol; ESI-TOF; MS2; CE: 0.6458333;  [M+H]+
Name: zymosterol
Class: NA
Formula: C27H44O
Exact mass: 384.33922
SMILES: [H]OC1([H])(C([H])([H])C([H])([H])C2(C3=C(C([H])([H])C([H])([H])C2([H])(C1([H])([H])))C4([H])(C([H])([H])C([H])([H])C([H])(C([H])(C([H])([H])[H])C([H])([H])C([H])([H])C([H])=C(C([H])([H])[H])C([H])([H])[H])C4(C([H])([H])[H])(C([H])([H])C3([H])([H]))))(C([H])([H])[H]))
InChI: InChI=1S/C27H44O/c1-18(2)7-6-8-19(3)23-11-12-24-22-10-9-20-17-21(28)13-15-26(20,4)25(22)14-16-27(23,24)5/h7,19-21,23-24,28H,6,8-17H2,1-5H3
Instrument: waters xevo g2 TOF
Instrument type: ESI-TOF
Ms type: MS2
Ion mode: POSITIVE
Ionization: ESI
Collision energy: 0.6458333
Column name: Acquity CSHC18
Retention time: 10.273 min
Base peak: 385.34722
Precursor m/z: 385.34722
Precursor type: [M+H]+
m/z	relative intensity
93.0703	122
95.0863	507
105.0698	153
107.0864	328
109.1005	171
119.0859	193
121.1016	319
125.9864	4
133.1016	274
135.1176	299
145.1018	146
147.1173	185
149.1331	171
159.1166	178
161.1323	140
163.1484	193
175.148	193
201.1645	174
203.1807	267
204.1862	54
215.1803	208
217.1959	112
229.1956	4
257.2265	163
285.2575	59
323.226	147
323.2265	272
323.2271	116
367.337	999
368.3409	188
369.3288	186
384.3386	553
385.3447	230
386.3479	4
407.3295	537
445.3463	4
469.3038	135
617.0079	4
617.5044	4
788.6579	332
789.1614	411
789.6634	253
790.1587	111
791.6687	4
792.6696	4
980.837	4
981.3291	4
981.8406	4
