Mass spectrum: KYNURENINE; LC-ESI-QFT; MS2; CE: 30eV;  [M+H]+
Name: KYNURENINE
Class: NA
Formula: C10H12N2O3
Exact mass: 208.08479
SMILES: N[C@@H](CC(=O)C1=CC=CC=C1N)C(O)=O
InChI: InChI=1S/C10H12N2O3/c11-7-4-2-1-3-6(7)9(13)5-8(12)10(14)15/h1-4,8H,5,11-12H2,(H,14,15)/t8-/m0/s1
Instrument: Q-Exactive Orbitrap, Thermo Scientfic; Ultimate 3000 HPLC, Thermo Scientfic
Instrument type: LC-ESI-QFT
Ms type: MS2
Ion mode: POSITIVE
Ionization: ESI
Collision energy: 30eV
Column name: Acquity CSHC18
Retention time: 1.382 min
Base peak: 209.0921
Precursor m/z: 209.0921
Precursor type: [M+H]+
Precursor intensity: 192
m/z	relative intensity
50.1666	2
52.2874	1
53.9663	2
63.3226	2
63.4847	2
68.377	2
70.9813	2
74.0244	151
75.0325	2
77.0391	3
87.2421	2
88.04	42
91.0548	2
93.8488	2
94.0658	999
95.0498	3
95.0691	12
95.3131	2
96.3363	2
98.0241	2
99.0083	92
104.0501	24
105.4922	2
108.233	2
112.1676	2
116.0348	5
118.0657	84
119.6559	2
120.0449	228
121.0485	2
122.0607	3
132.0447	24
136.0761	505
137.0794	11
146.0604	583
147.0637	17
150.0554	328
151.0586	5
163.087	110
164.071	73
164.0904	3
174.0554	359
175.0589	9
177.1911	2
191.0824	2
192.066	632
193.069	24
209.0928	32
213.002	2
213.7539	3
