Mass spectrum: HOMOGENTISATE; LC-ESI-QFT; MS2; CE: 30eV;  [M+H]+
Name: HOMOGENTISATE
Class: NA
Formula: C8H8O4
Exact mass: 168.04226
SMILES: OC(=O)CC1=C(O)C=CC(O)=C1
InChI: InChI=1S/C8H8O4/c9-6-1-2-7(10)5(3-6)4-8(11)12/h1-3,9-10H,4H2,(H,11,12)
Instrument: Q-Exactive Orbitrap, Thermo Scientfic; Ultimate 3000 HPLC, Thermo Scientfic
Instrument type: LC-ESI-QFT
Ms type: MS2
Ion mode: POSITIVE
Ionization: ESI
Collision energy: 30eV
Column name: Acquity CSHC18
Retention time: 1.324 min
Base peak: 169.0495
Precursor m/z: 169.0495
Precursor type: [M+H]+
Precursor intensity: 114
m/z	relative intensity
54.4688	2
55.0185	1
61.7643	1
64.6385	1
67.0548	12
67.7154	2
69.7182	1
70.1061	1
81.0704	5
82.1901	2
89.1539	1
89.9462	2
93.0703	4
93.3529	2
93.5228	2
95.0495	18
95.0859	2
100.6713	2
105.0702	2
105.6348	1
107.0858	72
109.065	2
109.1015	17
115.409	1
122.036	3
123.0442	999
123.0804	2
123.1167	16
124.0476	25
124.857	2
127.0389	4
133.1012	3
146.9816	9
148.4913	2
150.0313	3
150.0549	39
151.039	89
151.0582	4
151.1115	28
157.8328	2
168.0654	3
169.0496	9
169.0858	3
169.1223	14
170.0963	10
175.7755	2
