Mass spectrum: Fluprostenol methyl ester; ESI-TOF; MS2; CE: 6.0000000;  [M+H]+
Name: Fluprostenol methyl ester
Class: NA
Formula: C24H31F3O6
Exact mass: 472.20727
SMILES: O[C@@H]1[C@H](C/C=C\CCCC(OC)=O)[C@@H](/C=C/[C@@H](O)COC2=CC(C(F)(F)F)=CC=C2)[C@H](O)C1
InChI: InChI=1S/C24H31F3O6/c1-32-23(31)10-5-3-2-4-9-19-20(22(30)14-21(19)29)12-11-17(28)15-33-18-8-6-7-16(13-18)24(25,26)27/h2,4,6-8,11-13,17,19-22,28-30H,3,5,9-10,14-15H2,1H3/b4-2-,12-11+/t17-,19-,20-,21+,22-/m1/s1
Instrument: waters xevo g2 TOF
Instrument type: ESI-TOF
Ms type: MS2
Ion mode: POSITIVE
Ionization: ESI
Collision energy: 6.0000000
Column name: Acquity CSHC18
Retention time: 4.061 min
Base peak: 473.21527
Precursor m/z: 473.21527
Precursor type: [M+H]+
m/z	relative intensity
91.0541	8
107.067	3
115.0658	20
119.0861	48
129.0706	37
131.0857	47
133.1032	23
135.0818	9
141.0711	17
143.0864	22
145.1016	118
147.1178	180
148.1211	17
157.1027	23
159.0811	32
161.1329	125
162.1184	15
162.9736	48
169.101	33
171.1164	95
177.0273	9
181.1013	89
182.105	6
183.1169	128
186.1077	11
187.1471	5
189.1274	745
190.1271	102
193.1086	8
197.1328	170
199.1117	170
200.1154	18
201.1264	57
205.1239	11
207.1175	100
208.1198	14
215.1437	120
217.0699	113
217.5721	63
218.1252	4
219.1373	25
221.1541	894
222.1566	138
225.128	651
226.1028	214
226.5767	44
227.0737	28
227.5715	13
231.1382	153
232.1447	16
233.1511	22
234.1534	5
235.1038	22
242.0865	12
243.1383	486
244.1405	66
247.1674	43
249.1456	61
250.1563	8
256.0747	4
257.1342	495
258.1559	165
259.1627	26
261.1476	71
275.1638	999
276.1683	179
279.2317	11
289.1769	15
293.1754	544
294.1773	90
304.2996	21
307.1798	19
319.1223	16
327.3778	6
329.1905	4
405.1688	5
409.1636	10
419.1776	18
437.1925	43
439.2251	100
440.2311	30
454.107	24
455.2021	85
473.2151	105
474.2167	19
