Mass spectrum: Wogonin; LC-ESI-QTOF; MS2; CE: 50eV;  [M+H]+
Name: Wogonin
Class: Flavone
Formula: C16H12O5
Exact mass: 284.0685
SMILES: COC1=C(C=C(C2=C1OC(=CC2=O)C3=CC=CC=C3)O)O
InChI: InChI=1S/C16H12O5/c1-20-15-12(19)7-10(17)14-11(18)8-13(21-16(14)15)9-5-3-2-4-6-9/h2-8,17,19H,1H3
Instrument: TIMS-TOF Pro, Bruker Daltonik; Elute UHPLC System, Bruker Daltonik
Instrument type: LC-ESI-QTOF
Ms type: MS2
Ion mode: POSITIVE
Ionization: ESI
Collision energy: 50eV
Column name: Acquity CSHC18
Retention time: 8.792 min
Base peak: 285.0759
Precursor m/z: 285.0759
Precursor type: [M+H]+
Precursor intensity: 1065256
m/z	relative intensity
52.9639	1
68.9883	7
70.0014	5
75.5637	5
81.2827	6
105.0332	15
112.0173	16
117.4055	8
125.0384	5
130.8509	8
131.0488	19
139.0539	12
140.0566	11
141.0686	10
144.058	17
145.0652	3
151.0536	41
157.0617	4
158.0655	4
168.0052	32
168.0566	41
171.0169	3
179.0496	17
200.0465	9
238.7823	3
241.0334	7
242.0592	10
252.0415	4
269.0444	12
270.0029	7
270.0108	28
270.0525	999
271.0546	110
272.0508	4
273.9986	1
285.0196	14
285.0491	101
285.5556	15
