Mass spectrum: Allocystathionine; ESI-TOF; MS2; CE: 6.0000000;  [M+H]+
Name: Allocystathionine
Class: NA
Formula: C7H14N2O4S
Exact mass: 222.06743
SMILES: NC(CCSCC(N)C(O)=O)C(O)=O
InChI: InChI=1S/C7H14N2O4S/c8-4(6(10)11)1-2-14-3-5(9)7(12)13/h4-5H,1-3,8-9H2,(H,10,11)(H,12,13)
Instrument: waters xevo g2 TOF
Instrument type: ESI-TOF
Ms type: MS2
Ion mode: POSITIVE
Ionization: ESI
Collision energy: 6.0000000
Column name: Acquity CSHC18
Retention time: 0.505 min
Base peak: 223.07543
Precursor m/z: 223.07543
Precursor type: [M+H]+
m/z	relative intensity
88.0222	203
89.0246	8
90.0181	9
98.9628	4
101.9646	5
113.9646	103
114.9707	8
118.0328	8
133.0326	3
134.0273	999
135.03	65
140.9633	7
142.964	6
143.9581	47
145.9549	17
146.9593	1
160.0432	15
177.0696	5
182.9853	23
189.9621	3
205.0641	2
206.048	8
214.9709	2
223.0752	816
224.0779	85
225.0724	52
230.9885	3
231.9965	16
232.9962	1
234.9598	2
239.0691	2
245.0554	3
258.887	3
261.0246	1
269.0621	3
276.9935	5
317.9968	1
445.142	4
498.0509	9
499.0578	4
