Mass spectrum: Metanephrine; LC-ESI-ITFT; MS2; CE: 100;  [M+H]+
Name: Metanephrine
Class: Benzenoids; Phenols; Methoxyphenols
Formula: C10H15NO3
Exact mass: 197.10519
SMILES: CNCC(O)C1=CC(OC)=C(O)C=C1
InChI: InChI=1S/C10H15NO3/c1-11-6-9(13)7-3-4-8(12)10(5-7)14-2/h3-5,9,11-13H,6H2,1-2H3
Instrument: Thermo Scientific Q-Exactive Focus
Instrument type: LC-ESI-ITFT
Ms type: MS2
Ion mode: POSITIVE
Ionization: ESI
Collision energy: 100
Column name: Acquity CSHC18
Retention time: 2.574 min
Base peak: 198.11247
Precursor m/z: 198.11247
Precursor type: [M+H]+
m/z	relative intensity
50.0157	627
51.0235	999
52.0313	50
53.0027	199
53.0391	99
62.0156	82
63.0234	154
65.0391	316
66.0469	82
95.0494	75
