Mass spectrum: Prostaglandin E3; ESI-TOF; MS2; CE: 0.6458333;  [M+H]+
Name: Prostaglandin E3
Class: NA
Formula: C20H30O5
Exact mass: 350.20932
SMILES: CCC=CCC(C=CC1C(CC(=O)C1CC=CCCCC(=O)O)O)O
InChI: InChI=1S/C20H30O5/c1-2-3-6-9-15(21)12-13-17-16(18(22)14-19(17)23)10-7-4-5-8-11-20(24)25/h3-4,6-7,12-13,15-17,19,21,23H,2,5,8-11,14H2,1H3,(H,24,25)
Instrument: waters xevo g2 TOF
Instrument type: ESI-TOF
Ms type: MS2
Ion mode: POSITIVE
Ionization: ESI
Collision energy: 0.6458333
Column name: Acquity CSHC18
Retention time: 3.356 min
Base peak: 351.21732
Precursor m/z: 351.21732
Precursor type: [M+H]+
m/z	relative intensity
91.0541	84
93.0704	87
128.062	58
131.0883	91
141.0739	53
143.0855	71
145.1008	104
149.0964	9
165.0572	9
189.0881	9
207.1033	9
231.1383	9
243.175	9
251.0581	9
260.0463	72
269.1895	9
271.1682	9
273.1833	9
279.172	62
287.2045	9
297.1854	92
298.1888	17
299.202	9
301.1456	51
315.195	41
317.1083	9
318.0829	9
333.2056	9
334.2072	9
352.1795	9
357.2204	9
369.1153	218
371.1498	104
373.1984	999
374.2023	9
375.209	9
386.1179	9
387.1238	9
388.1257	9
389.1642	143
405.1367	9
406.1498	9
407.1384	49
408.1392	9
419.1492	9
446.1339	9
736.3267	9
754.3288	9
756.3463	9
757.344	9
