Mass spectrum: Daphnetin; LC-ESI-QTOF; MS2; CE: 35.00;  [M+H]+
Name: Daphnetin
Class: NA
Formula: C9H6O4
Exact mass: 178.0266
SMILES: C1=CC(=C(C2=C1C=CC(=O)O2)O)O
InChI: InChI=1S/C9H6O4/c10-6-3-1-5-2-4-7(11)13-9(5)8(6)12/h1-4,10,12H
Instrument: Bruker MicrOTOF-Q
Instrument type: LC-ESI-QTOF
Ms type: MS2
Ion mode: POSITIVE
Ionization: ESI
Collision energy: 35.00
Column name: Acquity CSHC18
Retention time: NA
Base peak: 179.0342
Precursor m/z: 179.0342
Precursor type: [M+H]+
m/z	relative intensity
123.0437	658
133.0276	999
150.028	657
