Mass spectrum: Naringenin; ESI-TOF; MS2; CE: 6.0000000;  [M+H]+
Name: Naringenin
Class: NA
Formula: C15H12O5
Exact mass: 272.06847
SMILES: OC1=CC=C(C=C1)C1CC(=O)C2=C(O)C=C(O)C=C2O1
InChI: InChI=1S/C15H12O5/c16-9-3-1-8(2-4-9)13-7-12(19)15-11(18)5-10(17)6-14(15)20-13/h1-6,13,16-18H,7H2
Instrument: waters xevo g2 TOF
Instrument type: ESI-TOF
Ms type: MS2
Ion mode: POSITIVE
Ionization: ESI
Collision energy: 6.0000000
Column name: Acquity CSHC18
Retention time: 2.859 min
Base peak: 273.07647
Precursor m/z: 273.07647
Precursor type: [M+H]+
m/z	relative intensity
127.9802	26
147.0754	71
148.0483	13
153.1254	49
154.0224	14
155.0252	1
165.0193	2
171.0327	8
176.5295	3
179.0344	11
185.0526	56
185.5352	1
186.0479	3
189.0214	1
197.0429	6
219.0468	1
238.142	3
257.0457	2
259.0925	1
261.0738	3
273.4219	999
275.1467	96
276.0844	27
277.1438	1
279.0861	16
288.0589	2
295.0577	111
296.0613	9
297.0659	1
311.0237	8
315.1089	2
329.0349	2
339.0489	7
341.0505	2
343.0474	5
348.1145	6
352.0491	5
357.0311	19
358.0148	12
366.0264	2
368.0218	31
369.0245	7
370.0216	7
376.026	3
383.113	4
389.1819	5
390.0403	6
399.0413	5
411.1629	4
428.0836	10
428.586	5
429.0906	1
441.116	24
458.1969	3
543.1296	3
564.1517	2
565.1093	2
567.116	26
568.1193	4
569.1037	3
570.1073	1
571.11	2
576.0997	2
576.6026	1
583.0912	269
584.095	37
585.0971	21
586.0968	2
587.0863	3
588.089	1
590.5752	19
591.0765	16
591.5785	6
592.0785	3
596.0606	12
597.0648	2
598.0566	137
599.0599	67
600.0624	19
601.0664	48
602.0674	9
603.0622	25
604.0643	7
605.0608	2
606.0661	1
609.0652	1
610.0567	25
611.0602	28
613.0415	1
615.115	1
683.0133	2
726.6156	3
727.1087	1
855.1575	33
856.1619	16
857.164	4
863.1512	3
864.1475	2
866.1234	5
867.1289	3
870.1217	1
881.1128	2
882.1192	1
889.5957	2
890.095	2
890.6052	1
892.1041	23
893.1057	10
1164.1645	1
1165.1645	1
1180.1372	3
1181.1374	2
1196.1106	9
1198.1107	9
1199.1122	6
