Mass spectrum: D-Arabitol; LC-ESI-ITFT; MS2; CE: 40;  [M-H]-
Name: D-Arabitol
Class: Organic oxygen compounds; Organooxygen compounds; Carbohydrates and carbohydrate conjugates
Formula: C5H12O5
Exact mass: 152.06847
SMILES: OC[C@@H](O)C(O)[C@H](O)CO
InChI: InChI=1S/C5H12O5/c6-1-3(8)5(10)4(9)2-7/h3-10H,1-2H2/t3-,4-/m1/s1
Instrument: Thermo Scientific Q-Exactive Focus
Instrument type: LC-ESI-ITFT
Ms type: MS2
Ion mode: NEGATIVE
Ionization: ESI
Collision energy: 40
Column name: Acquity CSHC18
Retention time: 1.477 min
Base peak: 151.06120
Precursor m/z: 151.06120
Precursor type: [M-H]-
m/z	relative intensity
59.0126	999
71.0126	731
72.9918	131
81.6759	84
106.4923	84
122.5068	80
125.1504	77
128.424	86
128.577	80
168.9834	78
