Mass spectrum: 5-Methoxytryptophan; ESI-TOF; MS2; CE: 0.6458333;  [M+H]+
Name: 5-Methoxytryptophan
Class: NA
Formula: C12H14N2O3
Exact mass: 234.10044
SMILES: COC1=CC2=C(NC=C2CC(N)C(O)=O)C=C1
InChI: InChI=1S/C12H14N2O3/c1-17-8-2-3-11-9(5-8)7(6-14-11)4-10(13)12(15)16/h2-3,5-6,10,14H,4,13H2,1H3,(H,15,16)
Instrument: waters xevo g2 TOF
Instrument type: ESI-TOF
Ms type: MS2
Ion mode: POSITIVE
Ionization: ESI
Collision energy: 0.6458333
Column name: Acquity CSHC18
Retention time: 1.839 min
Base peak: 235.10844
Precursor m/z: 235.10844
Precursor type: [M+H]+
m/z	relative intensity
77.0399	2
78.0474	1
89.04	2
90.0479	1
91.055	10
102.0475	4
103.0547	12
104.0512	9
105.0582	42
106.0631	4
115.0552	62
116.0511	65
117.0589	154
118.0647	34
119.0724	7
120.0811	4
121.0654	14
122.067	1
127.0552	10
129.0591	37
130.0659	157
131.0733	143
132.0462	25
133.053	514
134.0567	55
135.0591	3
140.0503	4
141.0575	10
142.0647	35
143.0735	129
144.0804	49
145.0641	64
146.0625	21
147.069	60
148.0763	999
149.0796	102
150.0819	6
154.0659	17
155.0703	3
156.0454	2
157.053	84
158.0605	169
159.0687	314
160.0764	109
161.0807	15
162.0736	25
163.095	5
169.0529	9
170.0605	31
171.0666	16
172.0762	209
173.0806	225
174.0918	298
175.0947	40
176.1073	471
177.0746	95
178.0769	9
182.061	6
185.0477	74
186.0513	9
187.0867	3
189.1028	19
190.0967	9
198.0545	2
200.0712	164
201.0744	23
202.0763	1
203.0709	1
217.0181	2
218.0544	124
219.0851	35
220.0871	3
227.0505	1
235.1082	20
236.1109	2
