Mass spectrum: N-16:0 L-Serine; ESI-TOF; MS2; CE: 0.6458333;  [M+H]+
Name: N-16:0 L-Serine
Class: NA
Formula: C19H37NO4
Exact mass: 343.27226
SMILES: OC(=O)C(NC(=O)CCCCCCCCCCCCCCC)CO
InChI: InChI=1S/C19H37NO4/c1-2-3-4-5-6-7-8-9-10-11-12-13-14-15-18(22)20-17(16-21)19(23)24/h17,21H,2-16H2,1H3,(H,20,22)(H,23,24)
Instrument: waters xevo g2 TOF
Instrument type: ESI-TOF
Ms type: MS2
Ion mode: POSITIVE
Ionization: ESI
Collision energy: 0.6458333
Column name: Acquity CSHC18
Retention time: 7.285 min
Base peak: 344.28026
Precursor m/z: 344.28026
Precursor type: [M+H]+
m/z	relative intensity
71.0865	24
85.1015	26
88.04	107
106.0506	999
113.9878	17
128.0319	46
169.0192	15
239.2373	12
280.2635	17
308.2269	69
309.2299	11
320.2268	369
321.2295	39
326.2691	60
327.2666	16
336.1999	18
344.281	43
348.2527	14
352.217	220
353.2183	26
366.2622	368
367.2652	81
368.2268	4
382.2267	21
388.2433	6
395.26	13
457.2603	10
553.8631	55
554.3641	24
633.4852	14
665.4788	105
666.4853	35
695.4874	66
696.4902	26
710.5251	2
725.5	193
726.5033	86
740.4649	24
741.47	20
743.4684	21
744.4742	43
744.9731	30
745.4719	18
751.9548	22
752.9584	12
1068.7715	21
1069.7773	12
1106.7208	20
1107.7234	12
