Mass spectrum: D-erythro-sphingosine (C20 base); ESI-TOF; MS2; CE: 6.0000000;  [M+H]+
Name: D-erythro-sphingosine (C20 base)
Class: NA
Formula: C20H41NO2
Exact mass: 327.31373
SMILES: [H]OC([H])([H])C([H])(N([H])[H])C([H])(O[H])C([H])=C([H])C([H])([H])C([H])([H])C([H])([H])C([H])([H])C([H])([H])C([H])([H])C([H])([H])C([H])([H])C([H])([H])C([H])([H])C([H])([H])C([H])([H])C([H])([H])C([H])([H])C([H])([H])[H]
InChI: InChI=1S/C20H41NO2/c1-2-3-4-5-6-7-8-9-10-11-12-13-14-15-16-17-20(23)19(21)18-22/h16-17,19-20,22-23H,2-15,18,21H2,1H3
Instrument: waters xevo g2 TOF
Instrument type: ESI-TOF
Ms type: MS2
Ion mode: POSITIVE
Ionization: ESI
Collision energy: 6.0000000
Column name: Acquity CSHC18
Retention time: 4.542 min
Base peak: 328.32173
Precursor m/z: 328.32173
Precursor type: [M+H]+
m/z	relative intensity
81.0709	2
83.0865	1
95.0863	2
97.1018	1
109.1018	3
123.1175	1
135.1174	2
137.1328	1
221.2259	1
239.2382	17
240.2673	1
275.2739	9
276.2766	1
280.3006	65
281.304	13
292.3006	15
293.2942	20
294.2887	2
310.4212	999
311.3145	843
312.3172	102
313.321	9
328.3207	896
329.3237	217
