Mass spectrum: Gibberellin A3; LC-ESI-QTOF; MS2; CE: 50eV;  [M-H]-
Name: Gibberellin A3
Class: Diterpene
Formula: C19H22O6
Exact mass: 346.1416
SMILES: CC12C(C=CC3(C1C(C45C3CCC(C4)(C(=C)C5)O)C(=O)O)OC2=O)O
InChI: InChI=1S/C19H22O6/c1-9-7-17-8-18(9,24)5-3-10(17)19-6-4-11(20)16(2,15(23)25-19)13(19)12(17)14(21)22/h4,6,10-13,20,24H,1,3,5,7-8H2,2H3,(H,21,22)
Instrument: TIMS-TOF Pro, Bruker Daltonik; Elute UHPLC System, Bruker Daltonik
Instrument type: LC-ESI-QTOF
Ms type: MS2
Ion mode: NEGATIVE
Ionization: ESI
Collision energy: 50eV
Column name: Acquity CSHC18
Retention time: 5.253 min
Base peak: 345.1282
Precursor m/z: 345.1282
Precursor type: [M-H]-
Precursor intensity: 75195.19
m/z	relative intensity
15.989	14
41.0014	29
43.0186	18
53.0521	14
53.6522	17
55.0178	36
57.0341	14
60.9937	14
65.6274	14
71.0493	127
73.0272	25
83.0486	115
84.0532	18
85.7559	20
94.6806	14
95.0523	21
105.0676	40
119.084	26
121.0632	18
127.8034	19
128.062	16
133.0977	14
135.0787	14
142.0776	39
142.7587	20
142.9981	21
143.0901	999
144.0834	120
144.8101	16
145.0768	18
161.0937	34
170.0699	14
171.081	26
171.8283	14
179.0835	24
183.0787	16
184.0507	14
185.0939	29
187.1115	14
193.0985	23
197.1101	23
201.1249	35
205.0977	44
206.1038	19
212.0817	14
213.1243	17
215.1397	16
219.1118	20
221.129	335
222.1337	77
227.1056	83
228.107	45
237.127	24
239.1374	476
240.1424	163
241.1452	27
253.41	14
257.1485	67
271.0922	53
273.1496	19
283.1285	57
284.1323	39
301.1394	58
302.1444	19
303.0138	14
327.0463	17
327.119	37
345.1326	637
