Mass spectrum: Shikimic acid; LC-ESI-QTOF; MS2; CE: 18.68;  [2M+H]+
Name: Shikimic acid
Class: NA
Formula: C7H10O5
Exact mass: 174.0528
SMILES: C1C(C(C(C=C1C(=O)O)O)O)O
InChI: InChI=1S/C7H10O5/c8-4-1-3(7(11)12)2-5(9)6(4)10/h1,4-6,8-10H,2H2,(H,11,12)
Instrument: Bruker MicrOTOF-Q
Instrument type: LC-ESI-QTOF
Ms type: MS2
Ion mode: POSITIVE
Ionization: ESI
Collision energy: 18.68
Column name: Acquity CSHC18
Retention time: NA
Base peak: 349.1129
Precursor m/z: 349.1129
Precursor type: [2M+H]+
m/z	relative intensity
111.0434	58
121.0279	81
139.0393	89
140.0425	161
157.0498	999
