Mass spectrum: N,N,N-TRIMETHYLLYSINE; LC-ESI-QFT; MS2; CE: 30eV;  [M+H]+
Name: N,N,N-TRIMETHYLLYSINE
Class: NA
Formula: C9H20N2O2
Exact mass: 188.15248
SMILES: C[N+](C)(C)CCCC[C@H](N)C([O-])=O
InChI: InChI=1S/C9H20N2O2/c1-11(2,3)7-5-4-6-8(10)9(12)13/h8H,4-7,10H2,1-3H3/t8-/m0/s1
Instrument: Q-Exactive Orbitrap, Thermo Scientfic; Ultimate 3000 HPLC, Thermo Scientfic
Instrument type: LC-ESI-QFT
Ms type: MS2
Ion mode: POSITIVE
Ionization: ESI
Collision energy: 30eV
Column name: Acquity CSHC18
Retention time: 0.541 min
Base peak: 189.1598
Precursor m/z: 189.1598
Precursor type: [M+H]+
Precursor intensity: 179
m/z	relative intensity
50.0727	15
51.8304	12
53.9782	13
56.0502	62
58.0658	28
58.7882	11
60.6819	13
61.0785	13
61.0849	93
67.0551	32
68.8241	15
75.0815	11
80.3669	13
85.0655	68
85.0849	256
86.0971	90
92.8651	15
93.4978	15
102.092	63
121.9733	16
131.0844	26
131.09	650
144.1387	396
154.5135	14
159.5312	15
164.3529	13
174.8217	15
189.9033	15
190.1636	999
205.0582	16
