Mass spectrum: 1,2-dibehenoyl-sn-glycero-3-phosphocholine; ESI-TOF; MS2; CE: 6.0000000;  [M+H]+
Name: 1,2-dibehenoyl-sn-glycero-3-phosphocholine
Class: NA
Formula: C52H104NO8P
Exact mass: 901.74996
SMILES: [H]C([H])([H])C([H])([H])C([H])([H])C([H])([H])C([H])([H])C([H])([H])C([H])([H])C([H])([H])C([H])([H])C([H])([H])C([H])([H])C([H])([H])C([H])([H])C([H])([H])C([H])([H])C([H])([H])C([H])([H])C([H])([H])C([H])([H])C([H])([H])C([H])([H])C(=O)OC([H])([H])C([H])(OC(=O)C([H])([H])C([H])([H])C([H])([H])C([H])([H])C([H])([H])C([H])([H])C([H])([H])C([H])([H])C([H])([H])C([H])([H])C([H])([H])C([H])([H])C([H])([H])C([H])([H])C([H])([H])C([H])([H])C([H])([H])C([H])([H])C([H])([H])C([H])([H])C([H])([H])[H])C([H])([H])OP(=O)([O-])OC([H])([H])C([H])([H])[N+](C([H])([H])[H])(C([H])([H])[H])C([H])([H])[H]
InChI: InChI=1S/C52H104NO8P/c1-6-8-10-12-14-16-18-20-22-24-26-28-30-32-34-36-38-40-42-44-51(54)58-48-50(49-60-62(56,57)59-47-46-53(3,4)5)61-52(55)45-43-41-39-37-35-33-31-29-27-25-23-21-19-17-15-13-11-9-7-2/h50H,6-49H2,1-5H3
Instrument: waters xevo g2 TOF
Instrument type: ESI-TOF
Ms type: MS2
Ion mode: POSITIVE
Ionization: ESI
Collision energy: 6.0000000
Column name: Acquity CSHC18
Retention time: 13.466 min
Base peak: 902.75796
Precursor m/z: 902.75796
Precursor type: [M+H]+
m/z	relative intensity
125.986	43
125.9863	31
125.9865	22
129.9798	14
129.9801	55
214.9193	33
470.8567	265
471.8587	54
478.8434	35
535.8345	30
562.4238	98
563.429	21
902.7577	999
903.7614	592
904.7634	193
905.7669	26
921.7335	111
922.2335	125
922.732	79
923.2374	24
924.7403	204
925.7429	182
926.7461	40
930.2144	20
931.224	13
940.7081	7
986.7096	72
987.2127	30
992.7242	19
993.7227	22
994.6999	9
995.7012	22
