Mass spectrum: Ornithine; LC-ESI-ITFT; MS2; CE: 40;  [M+H]+
Name: Ornithine
Class: Organic acids and derivatives; Carboxylic acids and derivatives; Amino acids, peptides, and analogues
Formula: C5H12N2O2
Exact mass: 132.08988
SMILES: NCCC[C@H](N)C(O)=O
InChI: InChI=1S/C5H12N2O2/c6-3-1-2-4(7)5(8)9/h4H,1-3,6-7H2,(H,8,9)/t4-/m0/s1
Instrument: Thermo Scientific Q-Exactive Focus
Instrument type: LC-ESI-ITFT
Ms type: MS2
Ion mode: POSITIVE
Ionization: ESI
Collision energy: 40
Column name: Acquity CSHC18
Retention time: 1.463 min
Base peak: 133.09715
Precursor m/z: 133.09715
Precursor type: [M+H]+
m/z	relative intensity
53.0393	5
59.9308	7
64.1598	4
68.0501	42
70.0657	999
119.6943	4
124.1578	5
125.2463	4
134.3904	4
143.6759	4
