Mass spectrum: 5'-Guanylic acid; LC-ESI-QTOF; MS2; CE: -10, -35, -60V;  [M-H]-
Name: 5'-Guanylic acid
Class: NA
Formula: C10H14N5O8P
Exact mass: 363.0580
SMILES: C1=NC2=C(N1C3C(C(C(O3)COP(=O)(O)O)O)O)NC(=NC2=O)N
InChI: InChI=1S/C10H14N5O8P/c11-10-13-7-4(8(18)14-10)12-2-15(7)9-6(17)5(16)3(23-9)1-22-24(19,20)21/h2-3,5-6,9,16-17H,1H2,(H2,19,20,21)(H3,11,13,14,18)
Instrument: TripleToF 5600; Sciex
Instrument type: LC-ESI-QTOF
Ms type: MS2
Ion mode: NEGATIVE
Ionization: ESI
Collision energy: -10, -35, -60V
Column name: Acquity CSHC18
Retention time: 7.429 min
Base peak: 362.0524
Precursor m/z: 362.0524
Precursor type: [M-H]-
Precursor intensity: 36562.63
m/z	relative intensity
78.9595	999
150.0427	53
211.0028	96
362.0529	594
