Mass spectrum: 4'-Methyleriodictyol; LC-ESI-QTOF; MS2; CE: 50eV;  [M+H]+
Name: 4'-Methyleriodictyol
Class: Flavanone
Formula: C16H14O6
Exact mass: 302.0790
SMILES: COC1=C(C=C(C=C1)C2CC(=O)C3=C(C=C(C=C3O2)O)O)O
InChI: InChI=1S/C16H14O6/c1-21-13-3-2-8(4-10(13)18)14-7-12(20)16-11(19)5-9(17)6-15(16)22-14/h2-6,14,17-19H,7H2,1H3
Instrument: TIMS-TOF Pro, Bruker Daltonik; Elute UHPLC System, Bruker Daltonik
Instrument type: LC-ESI-QTOF
Ms type: MS2
Ion mode: POSITIVE
Ionization: ESI
Collision energy: 50eV
Column name: Acquity CSHC18
Retention time: 7.566 min
Base peak: 303.0843
Precursor m/z: 303.0843
Precursor type: [M+H]+
Precursor intensity: 454815.3
m/z	relative intensity
27.4302	2
46.9224	4
55.016	3
67.0078	9
68.9978	21
72.348	3
78.0457	4
86.6187	4
89.0394	58
90.0452	3
91.0538	7
97.029	13
103.0506	1
105.0314	3
106.042	16
110.036	5
111.0068	17
115.0516	3
117.0342	51
118.0353	8
121.0641	4
123.0431	12
124.0147	3
126.5256	5
134.0349	18
135.0434	3
137.0606	54
138.0617	4
139.4466	3
145.0284	85
146.0333	5
149.059	55
150.0621	5
151.0745	30
153.0054	521
153.3707	6
154.0197	29
155.0216	5
156.5742	6
161.9178	5
164.0406	2
166.0259	6
175.0738	20
177.0148	16
177.4521	13
178.0571	182
179.0344	120
180.0378	14
181.0398	2
187.0406	4
193.083	6
201.053	16
215.0708	2
219.0633	20
220.0648	7
243.0642	8
253.0138	3
261.067	8
267.0612	4
285.0745	59
287.055	8
302.9159	3
303.0622	999
303.579	14
