Mass spectrum: Guaifenesin; ESI-TOF; MS2; CE: 6.0000000;  [M+H]+
Name: Guaifenesin
Class: NA
Formula: C10H14O4
Exact mass: 198.08921
SMILES: COC1=CC=CC=C1OCC(O)CO
InChI: InChI=1S/C10H14O4/c1-13-9-4-2-3-5-10(9)14-7-8(12)6-11/h2-5,8,11-12H,6-7H2,1H3
Instrument: waters xevo g2 TOF
Instrument type: ESI-TOF
Ms type: MS2
Ion mode: POSITIVE
Ionization: ESI
Collision energy: 6.0000000
Column name: Acquity CSHC18
Retention time: 2.214 min
Base peak: 199.09721
Precursor m/z: 199.09721
Precursor type: [M+H]+
m/z	relative intensity
65.0399	4
75.0457	2
77.0397	9
79.0554	3
84.9605	1
91.0551	14
93.0345	197
94.0391	13
95.0501	137
96.0533	9
103.0552	16
104.0584	1
105.0707	25
106.0741	1
107.0499	44
109.0474	14
110.0373	141
111.9695	1
112.9919	1
113.9647	12
117.071	3
119.0384	25
120.0573	11
121.0191	2
122.037	264
123.0443	559
124.0495	87
125.1564	591
126.0636	191
127.0756	18
128.0318	6
128.9755	3
131.0502	22
132.0101	10
133.0653	24
134.0634	5
135.0813	12
136.0689	40
137.0605	515
138.0198	32
139.5394	15
139.9886	3
145.0658	36
146.07	4
147.5262	4
148.0183	39
148.5355	2
149.0583	21
149.5231	2
151.107	999
152.0796	207
153.0869	34
158.1025	2
162.081	2
163.141	1
164.0798	260
165.0824	23
167.0702	1
172.9776	17
173.5402	3
175.0862	1
180.5486	4
181.0699	137
182.0895	16
187.0529	18
187.5554	4
188.5425	1
189.0309	24
190.0059	7
190.5411	1
191.0377	2
194.0607	3
194.562	1
195.9822	9
198.0369	8
199.0975	366
200.1005	45
