Mass spectrum: Unoprostone isopropyl ester; ESI-TOF; MS2; CE: 0.6458333;  [M+H]+
Name: Unoprostone isopropyl ester
Class: NA
Formula: C25H44O5
Exact mass: 424.31887
SMILES: CCCCCCCC(=O)CCC1C(CC(C1CC=CCCCC(=O)OC(C)C)O)O
InChI: InChI=1S/C25H44O5/c1-4-5-6-7-10-13-20(26)16-17-22-21(23(27)18-24(22)28)14-11-8-9-12-15-25(29)30-19(2)3/h8,11,19,21-24,27-28H,4-7,9-10,12-18H2,1-3H3
Instrument: waters xevo g2 TOF
Instrument type: ESI-TOF
Ms type: MS2
Ion mode: POSITIVE
Ionization: ESI
Collision energy: 0.6458333
Column name: Acquity CSHC18
Retention time: 5.387 min
Base peak: 425.32687
Precursor m/z: 425.32687
Precursor type: [M+H]+
m/z	relative intensity
57.0692	25
67.0543	18
81.0705	35
91.0551	76
93.0711	82
95.0868	33
97.0651	7
105.0713	107
107.0868	22
109.1021	106
113.0603	21
117.0708	93
119.0869	125
121.1025	21
127.1129	424
128.1164	28
129.0705	61
131.0863	178
133.1017	49
141.072	47
143.0866	161
145.1028	406
146.1056	40
147.1183	25
149.0967	8
155.1439	10
157.1017	79
159.1178	136
160.1205	18
161.1323	32
167.0853	16
169.1028	338
170.1067	40
171.1159	51
173.1328	13
175.1491	52
183.1172	34
185.1331	277
186.135	41
187.1121	537
189.0907	6
195.1181	47
197.1306	7
199.1114	23
201.1627	14
203.1437	523
205.1235	789
206.1253	99
209.0896	25
211.1168	17
213.1217	39
214.1337	5
217.1943	34
219.175	29
223.1477	18
227.1628	36
231.1373	13
237.1825	6
247.1703	233
248.1732	38
249.1759	6
263.1993	15
267.211	15
269.2277	73
270.2282	11
283.2395	31
287.2375	16
291.1236	8
293.2281	75
301.2527	20
303.2291	7
311.238	306
312.2396	45
321.1702	8
329.2487	482
330.2515	109
334.1974	52
334.6979	20
347.2587	165
348.2623	35
351.1599	6
365.2677	13
369.2272	6
371.2953	142
372.2986	24
385.2066	100
386.2067	27
387.2296	18
389.2622	75
390.307	30
391.2261	10
393.1956	29
395.1891	13
401.1782	74
402.2532	10
403.2168	392
404.2202	61
405.2589	999
405.7691	10
406.2608	127
407.3164	38
408.3204	10
418.1887	32
419.1867	18
420.198	28
421.2264	705
422.231	173
423.2718	47
423.7796	18
