Mass spectrum: Chlorogenic acid; LC-ESI-QTOF; MS2; CE: 50eV;  [M+H]+
Name: Chlorogenic acid
Class: quinic acid derivative
Formula: C16H18O9
Exact mass: 354.0951
SMILES: C1C(C(C(CC1(C(=O)O)O)OC(=O)C=CC2=CC(=C(C=C2)O)O)O)O
InChI: InChI=1S/C16H18O9/c17-9-3-1-8(5-10(9)18)2-4-13(20)25-12-7-16(24,15(22)23)6-11(19)14(12)21/h1-5,11-12,14,17-19,21,24H,6-7H2,(H,22,23)
Instrument: TIMS-TOF Pro, Bruker Daltonik; Elute UHPLC System, Bruker Daltonik
Instrument type: LC-ESI-QTOF
Ms type: MS2
Ion mode: POSITIVE
Ionization: ESI
Collision energy: 50eV
Column name: Acquity CSHC18
Retention time: 4.137 min
Base peak: 355.1006
Precursor m/z: 355.1006
Precursor type: [M+H]+
Precursor intensity: 11000.5
m/z	relative intensity
63.0193	2
89.0393	21
103.9157	3
107.0492	6
117.0343	35
135.0435	96
136.0465	2
145.0018	4
145.0229	17
146.0315	4
157.0513	2
162.9959	4
163.0202	11
163.0385	999
164.0428	50
165.0462	1
175.0613	1
337.0881	6
