Mass spectrum: Indole-3-butyric acid; LC-ESI-QTOF; MS2; CE: 15.00;  [M-H]-
Name: Indole-3-butyric acid
Class: NA
Formula: C12H13NO2
Exact mass: 203.0946
SMILES: C1=CC=C2C(=C1)C(=CN2)CCCC(=O)O
InChI: InChI=1S/C12H13NO2/c14-12(15)7-3-4-9-8-13-11-6-2-1-5-10(9)11/h1-2,5-6,8,13H,3-4,7H2,(H,14,15)
Instrument: Bruker MicrOTOF-Q
Instrument type: LC-ESI-QTOF
Ms type: MS2
Ion mode: NEGATIVE
Ionization: ESI
Collision energy: 15.00
Column name: Acquity CSHC18
Retention time: NA
Base peak: 202.0874
Precursor m/z: 202.0874
Precursor type: [M-H]-
m/z	relative intensity
53.15	46
59.62	35
60.61	36
64.44	35
64.61	37
67.48	43
67.58	31
75.02	41
77.61	36
81.03	43
85.49	59
109.54	41
110.91	49
115.61	35
116.05	999
117.05	79
129.05	70
131.3	42
137.79	40
138.79	32
142.05	58
150.38	44
150.53	28
150.95	28
156.1	57
158.1	136
158.3	26
185.08	32
201.37	30
201.64	27
202.01	38
202.09	484
202.19	41
203.08	62
237.33	33
243.53	40
282.15	25
282.5	43
308.18	33
312.83	37
315.52	25
357.45	32
369.93	30
432.35	41
452.31	26
551.08	40
719.69	40
754.08	40
793.37	28
950.28	44
963.29	33
966.92	38
