Mass spectrum: Apigenin 7-glucoside; LC-ESI-QTOF; MS2; CE: 50eV;  [M+H]+
Name: Apigenin 7-glucoside
Class: Falvone
Formula: C21H20O10
Exact mass: 432.1056
SMILES: C1=CC(=CC=C1C2=CC(=O)C3=C(C=C(C=C3O2)OC4C(C(C(C(O4)CO)O)O)O)O)O
InChI: InChI=1S/C21H20O10/c22-8-16-18(26)19(27)20(28)21(31-16)29-11-5-12(24)17-13(25)7-14(30-15(17)6-11)9-1-3-10(23)4-2-9/h1-7,16,18-24,26-28H,8H2
Instrument: TIMS-TOF Pro, Bruker Daltonik; Elute UHPLC System, Bruker Daltonik
Instrument type: LC-ESI-QTOF
Ms type: MS2
Ion mode: POSITIVE
Ionization: ESI
Collision energy: 50eV
Column name: Acquity CSHC18
Retention time: 5.618 min
Base peak: 433.1127
Precursor m/z: 433.1127
Precursor type: [M+H]+
Precursor intensity: 261756.1
m/z	relative intensity
67.0091	8
119.0354	8
119.0493	44
129.0185	7
140.0937	8
153.0172	117
154.0198	8
185.0605	7
202.7732	14
212.4496	5
218.608	7
244.0423	5
270.5626	9
270.8158	14
270.9699	10
271.0038	40
271.0169	98
271.0326	201
271.2259	5
271.3331	9
271.5265	79
271.9476	7
272.0627	999
272.5156	8
272.7252	5
273.0266	10
273.066	94
274.1209	7
276.1974	6
433.1127	72
