Mass spectrum: Arabidopsis Anthocyanin A8; LC-ESI-QTOF; MS2; CE: 52.74;  [M]+
Name: Arabidopsis Anthocyanin A8
Class: NA
Formula: [C50H57O30]+
Exact mass: 1137.2929
SMILES: C1C(C(C(C(O1)OC2C(C(C(OC2OC3=C([O+]=C4C=C(C=C(C4=C3)OC5C(C(C(C(O5)COC(=O)CC(=O)O)O)O)O)O)C6=CC(=C(C=C6)O)O)COC(=O)C=CC7=CC=C(C=C7)OC8C(C(C(C(O8)CO)O)O)O)O)O)O)O)O
InChI: InChI=1S/C50H56O30/c51-14-29-36(61)39(64)43(68)48(77-29)73-21-5-1-18(2-6-21)3-8-33(58)70-16-31-38(63)41(66)46(80-47-42(67)35(60)25(55)15-72-47)50(79-31)76-28-12-22-26(74-45(28)19-4-7-23(53)24(54)9-19)10-20(52)11-27(22)75-49-44(69)40(65)37(62)30(78-49)17-71-34(59)13-32(56)57/h1-12,25,29-31,35-44,46-51,55,60-69H,13-17H2,(H3-,52,53,54,56,57)/p+1
Instrument: Bruker MicrOTOF-Q
Instrument type: LC-ESI-QTOF
Ms type: MS2
Ion mode: POSITIVE
Ionization: ESI
Collision energy: 52.74
Column name: Acquity CSHC18
Retention time: NA
Base peak: 1137.2798
Precursor m/z: 1137.2798
Precursor type: [M]+
m/z	relative intensity
193.0472	34
287.0565	42
288.059	45
331.0999	64
535.1039	140
617.1484	999
