Mass spectrum: Tangeretin; LC-ESI-ITFT; MS2; CE: 45eV;  [M+H]+
Name: Tangeretin
Class: Flavonoid
Formula: C20H20O7
Exact mass: 372.1209
SMILES: COC1=CC=C(C=C1)C2=CC(=O)C3=C(O2)C(=C(C(=C3OC)OC)OC)OC
InChI: InChI=1S/C20H20O7/c1-22-12-8-6-11(7-9-12)14-10-13(21)15-16(23-2)18(24-3)20(26-5)19(25-4)17(15)27-14/h6-10H,1-5H3
Instrument: LTQ Orbitrap XL, Thermo Scientfic; Dionex Ultimate 300
Instrument type: LC-ESI-ITFT
Ms type: MS2
Ion mode: POSITIVE
Ionization: ESI
Collision energy: 45eV
Column name: Alltima C18
Retention time: 21.73 min
Base peak: 373.1270
Precursor m/z: 373.1270
Precursor type: [M+H]+
m/z	relative intensity
310.208	1
325.0902	47
339.0371	2
340.089	12
358.1	999
