Mass spectrum: S4:23(2,4,5,12); LC-ESI-QTOF; MS2; CE: -10,-35,-60V;  [M+FA-H]-
Name: S4:23(2,4,5,12)
Class: acyl sugar
Formula: C35H60O15
Exact mass: 720.3932
SMILES: CC(O[C@@H]2[C@H](O[C@]1(O[C@@H](CO)[C@H](O)[C@H]1OC(CCCCCCCCCCC)=O)CO)O[C@@H](CO)[C@@H]([C@H]2OC(C(C)C)=O)OC(C(C)CC)=O)=O
InChI: InChI=1S/C35H60O15/c1-7-9-10-11-12-13-14-15-16-17-26(40)46-31-27(41)24(18-36)49-35(31,20-38)50-34-30(44-23(6)39)29(48-32(42)21(3)4)28(25(19-37)45-34)47-33(43)22(5)8-2/h21-22,24-25,27-31,34,36-38,41H,7-20H2,1-6H3/t22?,24-,25-,27-,28-,29+,30-,31+,34-,35+/m0/s1
Instrument: TripleToF5600, Sciex; Acquity, Waters
Instrument type: LC-ESI-QTOF
Ms type: MS2
Ion mode: NEGATIVE
Ionization: ESI
Collision energy: -10,-35,-60V
Column name: Acquity CSHC18
Retention time: 15.935 min
Base peak: 765.3982
Precursor m/z: 765.3982
Precursor type: [M+FA-H]-
Precursor intensity: 2124947
m/z	relative intensity
71.0123	7
83.0115	7
87.0046	77
87.0401	77
87.044	77
89.0216	5
101.062	73
113.0224	11
143.0359	8
161.0443	5
179.055	3
197.0876	1
199.1721	144
200.1695	20
279.2346	3
291.2024	2
323.098	21
341.0919	8
393.1472	17
407.1678	16
408.1683	5
411.1456	31
412.148	6
413.169	2
425.1633	17
467.1759	4
477.2008	6
478.2159	1
495.1638	201
495.214	201
496.2135	60
497.2078	14
537.2134	137
538.2217	48
539.2374	12
593.3218	7
608.3465	1
677.3892	131
678.3889	55
679.371	15
680.3944	3
719.3888	52
720.3737	24
721.4046	5
762.9285	27
762.9714	28
763.9309	10
764.411	9
765.3831	564
765.4105	564
766.3872	726
766.4067	726
767.3841	999
768.3895	393
