Mass spectrum: XYLITOL; LC-ESI-QTOF; MS2; CE: 40;  [M-H]-
Name: XYLITOL
Class: NA
Formula: C5H12O5
Exact mass: 152.06847
SMILES: OC[C@H](O)C(O)[C@H](O)CO
InChI: InChI=1S/C5H12O5/c6-1-3(8)5(10)4(9)2-7/h3-10H,1-2H2/t3-,4+,5?
Instrument: Agilent 6530Â Q-TOF LC/MS
Instrument type: LC-ESI-QTOF
Ms type: MS2
Ion mode: NEGATIVE
Ionization: ESI
Collision energy: 40
Column name: NA
Retention time: 0.200 min
Base peak: 151.05806
Precursor m/z: 151.05806
Precursor type: [M-H]-
Precursor intensity: 107
m/z	relative intensity
41.016	168
41.9969	191
43.0239	328
53.0072	632
55.0301	760
59.031	829
71.0299	999
