Mass spectrum: 5'-Methylthioadenosine; LC-ESI-ITFT; MS2; CE: 60;  [M+H]+
Name: 5'-Methylthioadenosine
Class: Nucleosides, nucleotides, and analogues; 5'-deoxyribonucleosides; 5'-deoxy-5'-thionucleosides
Formula: C11H15N5O3S
Exact mass: 297.08956
SMILES: CSC[C@H]1O[C@H]([C@H](O)[C@@H]1O)N1C=NC2=C1N=CN=C2N
InChI: InChI=1S/C11H15N5O3S/c1-20-2-5-7(17)8(18)11(19-5)16-4-15-6-9(12)13-3-14-10(6)16/h3-5,7-8,11,17-18H,2H2,1H3,(H2,12,13,14)/t5-,7-,8-,11-/m1/s1
Instrument: Thermo Scientific Q-Exactive Focus
Instrument type: LC-ESI-ITFT
Ms type: MS2
Ion mode: POSITIVE
Ionization: ESI
Collision energy: 60
Column name: Acquity CSHC18
Retention time: 2.016 min
Base peak: 298.09683
Precursor m/z: 298.09683
Precursor type: [M+H]+
m/z	relative intensity
61.0111	255
67.0295	78
75.0266	103
92.0246	150
94.0402	201
109.051	55
112.0506	20
119.0352	802
136.0616	999
137.0456	353
