Mass spectrum: 3-Methoxytyrosine; ESI-TOF; MS2; CE: 6.0000000;  [M+H]+
Name: 3-Methoxytyrosine
Class: NA
Formula: C10H13NO4
Exact mass: 211.08446
SMILES: COC1=CC(CC(N)C(O)=O)=CC=C1O
InChI: InChI=1S/C10H13NO4/c1-15-9-5-6(2-3-8(9)12)4-7(11)10(13)14/h2-3,5,7,12H,4,11H2,1H3,(H,13,14)
Instrument: waters xevo g2 TOF
Instrument type: ESI-TOF
Ms type: MS2
Ion mode: POSITIVE
Ionization: ESI
Collision energy: 6.0000000
Column name: Acquity CSHC18
Retention time: 0.630 min
Base peak: 212.09246
Precursor m/z: 212.09246
Precursor type: [M+H]+
m/z	relative intensity
93.0345	3
114.9715	2
119.0501	10
123.0448	1
125.0606	50
130.0092	1
131.9514	1
134.0607	5
137.0607	17
149.0974	386
150.0639	73
151.0695	30
153.0554	131
154.0588	52
155.0609	1
157.0251	3
163.039	4
165.0796	37
165.5814	1
166.1042	323
167.0899	88
168.0923	6
177.0552	95
178.0913	4
195.066	999
196.0694	131
197.0712	3
212.112	215
213.0957	52
