Mass spectrum: Geissoschizine; ESI-QTOF; MS2; CE: 30 eV;  [M+H]+
Name: Geissoschizine
Class: NA
Formula: C21H24N2O3
Exact mass: 352.1787
SMILES: CC(=C1CN2CCC=3C4=CC=CC=C4NC3C2(CC1(C(C=O)(C(=O)OC)[H])[H])[H])[H]
InChI: InChI=1S/C21H24N2O3/c1-3-13-11-23-9-8-15-14-6-4-5-7-18(14)22-20(15)19(23)10-16(13)17(12-24)21(25)26-2/h3-7,12,16-17,19,22H,8-11H2,1-2H3
Instrument: Synapt (HDMS 1st gen)
Instrument type: ESI-QTOF
Ms type: MS2
Ion mode: POSITIVE
Ionization: ESI
Collision energy: 30 eV
Column name: Acquity CSHC18
Retention time: 12.671 min
Base peak: 353.1852
Precursor m/z: 353.1852
Precursor type: [M+H]+
Precursor intensity: 9438.56
m/z	relative intensity
143.0736	14
144.0796	27
145.0846	32
170.0971	33
178.0877	35
210.1125	38
222.115	46
251.1563	60
321.1617	276
353.1869	999
