Mass spectrum: Glycyl-L-leucine; ESI-TOF; MS2; CE: 0.6458333;  [M+H]+
Name: Glycyl-L-leucine
Class: NA
Formula: C8H16N2O3
Exact mass: 188.11609
SMILES: CC(C)CC(NC(=O)CN)C(O)=O
InChI: InChI=1S/C8H16N2O3/c1-5(2)3-6(8(12)13)10-7(11)4-9/h5-6H,3-4,9H2,1-2H3,(H,10,11)(H,12,13)
Instrument: waters xevo g2 TOF
Instrument type: ESI-TOF
Ms type: MS2
Ion mode: POSITIVE
Ionization: ESI
Collision energy: 0.6458333
Column name: Acquity CSHC18
Retention time: 1.516 min
Base peak: 189.12409
Precursor m/z: 189.12409
Precursor type: [M+H]+
m/z	relative intensity
86.0973	999
133.1057	7
143.1183	59
