Mass spectrum: Xanthine; LC-ESI-ITFT; MS2; CE: 40;  [M+H]+
Name: Xanthine
Class: Organoheterocyclic compounds; Imidazopyrimidines; Purines and purine derivatives
Formula: C5H4N4O2
Exact mass: 152.03343
SMILES: O=C1NC2=C(NC=N2)C(=O)N1
InChI: InChI=1S/C5H4N4O2/c10-4-2-3(7-1-6-2)8-5(11)9-4/h1H,(H3,6,7,8,9,10,11)
Instrument: Thermo Scientific Q-Exactive Focus
Instrument type: LC-ESI-ITFT
Ms type: MS2
Ion mode: POSITIVE
Ionization: ESI
Collision energy: 40
Column name: Acquity CSHC18
Retention time: 1.463 min
Base peak: 153.04070
Precursor m/z: 153.04070
Precursor type: [M+H]+
m/z	relative intensity
55.0297	999
56.0137	13
59.9308	56
65.0139	14
81.0088	404
82.0404	68
92.5244	24
108.0195	16
110.0351	103
118.9675	21
