Mass spectrum: N-Alpha-acetyllysine; LC-ESI-ITFT; MS2; CE: 10;  [M-H]-
Name: N-Alpha-acetyllysine
Class: Organic acids and derivatives; Carboxylic acids and derivatives; Amino acids, peptides, and analogues
Formula: C8H16N2O3
Exact mass: 188.11609
SMILES: CC(=O)NC(CCCCN)C(O)=O
InChI: InChI=1S/C8H16N2O3/c1-6(11)10-7(8(12)13)4-2-3-5-9/h7H,2-5,9H2,1H3,(H,10,11)(H,12,13)
Instrument: Thermo Scientific Q-Exactive Focus
Instrument type: LC-ESI-ITFT
Ms type: MS2
Ion mode: NEGATIVE
Ionization: ESI
Collision energy: 10
Column name: Acquity CSHC18
Retention time: 0.361 min
Base peak: 187.10883
Precursor m/z: 187.10883
Precursor type: [M-H]-
m/z	relative intensity
58.0286	23
97.0759	2
99.0915	2
125.096	3
126.0913	8
143.1179	111
145.0972	999
184.8236	1
187.0968	4
187.108	399
