Mass spectrum: Indole-3-butyric acid; LC-ESI-QTOF; MS2; CE: 50eV;  [M+H]+
Name: Indole-3-butyric acid
Class: indole
Formula: C12H13NO2
Exact mass: 203.0946
SMILES: C1=CC=C2C(=C1)C(=CN2)CCCC(=O)O
InChI: InChI=1S/C12H13NO2/c14-12(15)7-3-4-9-8-13-11-6-2-1-5-10(9)11/h1-2,5-6,8,13H,3-4,7H2,(H,14,15)
Instrument: TIMS-TOF Pro, Bruker Daltonik; Elute UHPLC System, Bruker Daltonik
Instrument type: LC-ESI-QTOF
Ms type: MS2
Ion mode: POSITIVE
Ionization: ESI
Collision energy: 50eV
Column name: Acquity CSHC18
Retention time: 7.432 min
Base peak: 204.1023
Precursor m/z: 204.1023
Precursor type: [M+H]+
Precursor intensity: 192166.7
m/z	relative intensity
18.7504	6
35.5085	5
75.9815	4
77.039	36
78.0435	8
89.037	14
90.0459	36
91.0545	41
99.7174	8
103.053	43
105.0322	9
114.7192	6
115.0542	37
117.0557	42
118.0655	24
127.0518	4
128.0481	8
129.0537	10
130.065	924
131.044	7
131.0694	71
132.0813	10
133.0843	4
142.066	9
143.0738	52
144.0814	228
145.0849	18
146.0612	3
155.0604	9
158.0599	10
159.1009	22
167.0712	15
168.0797	202
169.085	30
186.0922	999
187.0956	132
202.0899	3
204.1023	21
