Mass spectrum: Pyridoxine; LC-ESI-ITFT; MS2; CE: 20;  [M-H]-
Name: Pyridoxine
Class: Organoheterocyclic compounds; Pyridines and derivatives; Pyridoxines
Formula: C8H11NO3
Exact mass: 169.07389
SMILES: CC1=C(O)C(CO)=C(CO)C=N1
InChI: InChI=1S/C8H11NO3/c1-5-8(12)7(4-11)6(3-10)2-9-5/h2,10-12H,3-4H2,1H3
Instrument: Thermo Scientific Q-Exactive Focus
Instrument type: LC-ESI-ITFT
Ms type: MS2
Ion mode: NEGATIVE
Ionization: ESI
Collision energy: 20
Column name: Acquity CSHC18
Retention time: 0.642 min
Base peak: 168.06662
Precursor m/z: 168.06662
Precursor type: [M-H]-
m/z	relative intensity
107.0365	103
108.0443	525
110.0599	64
121.0522	281
122.0236	55
122.06	999
135.0315	69
138.0549	260
150.055	297
166.05	82
