Mass spectrum: O-acyl sugar AS9; LC-ESI-QTOF; MS2; CE: 22.5eV; [M+Na]+
Name: O-acyl sugar AS9
Class: O-acyl sugar
Formula: C29H48O15
Exact mass: 636.2993
SMILES: CC(CC)C(=O)O[C@H]1[C@H](O[C@H](CO)[C@@H](OC(=O)CC(C)CC)[C@@H]1OC(=O)C(C)C)O[C@]1(CO)O[C@H](CO)[C@@H](OC(C)=O)[C@@H]1O
InChI: InChI=1S/C29H48O15/c1-8-15(5)10-20(34)40-21-18(11-30)39-28(24(42-27(37)16(6)9-2)23(21)41-26(36)14(3)4)44-29(13-32)25(35)22(38-17(7)33)19(12-31)43-29/h14-16,18-19,21-25,28,30-32,35H,8-13H2,1-7H3/t15?,16?,18-,19-,21-,22-,23+,24-,25+,28-,29+/m1/s1
Instrument: Microtof-q MS
Instrument type: LC-ESI-QTOF
Ms type: MS2
Ion mode: POSITIVE
Ionization: ESI
Collision energy: 22.5eV
Column name: Acquity CSH C18 column (particle size 1.7 μm, column length 2.1 × 50 mm) (Waters)
Retention time: NA
Base peak: 659.2920
Precursor m/z: 659.2920
Precursor type: [M+Na]+
m/z	relative intensity
97.0279	61
205.0699	71
339.1431	56
353.1542	14
367.1748	11
455.2255	334
543.2059	24
557.2251	36
571.2342	29
659.2920	999
