Mass spectrum: 17-phenyl trinor Prostaglandin F2-alpha serinol amide; ESI-TOF; MS2; CE: 0.6458333;  [M+H]+
Name: 17-phenyl trinor Prostaglandin F2-alpha serinol amide
Class: NA
Formula: C26H39NO6
Exact mass: 461.27774
SMILES: O[C@H](/C=C/[C@@H]1C(C/C=C\CCCC(N([H])C(CO)CO)=O)[C@@H](O)C[C@H]1O)CCC2=CC=CC=C2
InChI: InChI=1S/C26H39NO6/c28-17-20(18-29)27-26(33)11-7-2-1-6-10-22-23(25(32)16-24(22)31)15-14-21(30)13-12-19-8-4-3-5-9-19/h1,3-6,8-9,14-15,20-25,28-32H,2,7,10-13,16-18H2,(H,27,33)/b6-1-,15-14+/t21-,22?,23+,24-,25+/m0/s1
Instrument: waters xevo g2 TOF
Instrument type: ESI-TOF
Ms type: MS2
Ion mode: POSITIVE
Ionization: ESI
Collision energy: 0.6458333
Column name: Acquity CSHC18
Retention time: 3.032 min
Base peak: 462.28574
Precursor m/z: 462.28574
Precursor type: [M+H]+
m/z	relative intensity
74.0602	353
91.055	410
92.0717	999
96.9636	21
105.0715	127
107.0869	9
117.0716	295
128.0713	124
129.0709	154
131.0862	322
133.1009	19
141.069	47
143.0863	123
144.0887	14
155.0784	43
157.1022	67
158.0821	128
159.0836	12
160.0952	10
167.0861	37
169.1014	95
171.1184	99
181.1023	45
182.1145	32
183.1168	42
184.0977	10
185.0974	49
186.1158	26
195.1161	40
197.1323	30
198.1351	15
199.1127	30
200.1206	13
205.1123	29
207.1187	58
208.1233	21
209.1337	18
213.1278	38
219.1166	35
219.6016	9
221.1339	30
224.1647	13
225.1295	19
226.1376	18
233.122	69
235.1443	17
237.1257	11
242.1761	13
249.1626	23
251.1356	5
255.0545	23
257.1313	19
273.1629	30
275.1794	220
276.1813	50
278.1808	11
289.1934	62
291.1754	42
299.1797	67
317.1895	306
318.1948	56
335.2002	51
354.24	75
362.1065	58
363.1086	40
364.2265	57
372.1609	26
381.116	37
382.238	258
383.2401	82
390.2436	268
391.2434	44
400.2495	28
408.2532	765
409.21	122
410.2601	14
425.1503	20
426.263	269
427.266	45
428.2704	9
435.1488	25
436.1577	54
437.159	16
444.2748	255
445.2769	74
446.2794	8
452.2067	33
453.1632	90
454.1653	112
455.1766	18
462.172	11
