Mass spectrum: Digalactosyldiacylglycerol (Plant); ESI-TOF; MS2; CE: 6.0000000;  [M+H]+
Name: Digalactosyldiacylglycerol (Plant)
Class: NA
Formula: C51H84O15
Exact mass: 936.58102
SMILES: [H]OC([H])([H])C2([H])(OC([H])(OC([H])([H])C1([H])(OC([H])(OC([H])([H])C([H])(OC(=O)C([H])([H])C([H])([H])C([H])([H])C([H])([H])C([H])([H])C([H])([H])C([H])([H])C([H])=C([H])C([H])([H])C([H])=C([H])C([H])([H])C([H])=C([H])C([H])([H])C([H])([H])[H])C([H])([H])OC(=O)C([H])([H])C([H])([H])C([H])([H])C([H])([H])C([H])([H])C([H])([H])C([H])([H])C([H])=C([H])C([H])([H])C([H])=C([H])C([H])([H])C([H])=C([H])C([H])([H])C([H])([H])[H])C([H])(O[H])C([H])(O[H])C1([H])(O[H])))C([H])(O[H])C([H])(O[H])C2([H])(O[H]))
InChI: InChI=1S/C51H84O15/c1-3-5-7-9-11-13-15-17-19-21-23-25-27-29-31-33-42(53)61-36-39(64-43(54)34-32-30-28-26-24-22-20-18-16-14-12-10-8-6-4-2)37-62-50-49(60)47(58)45(56)41(66-50)38-63-51-48(59)46(57)44(55)40(35-52)65-51/h5-8,11-14,17-20,39-41,44-52,55-60H,3-4,9-10,15-16,21-38H2,1-2H3
Instrument: waters xevo g2 TOF
Instrument type: ESI-TOF
Ms type: MS2
Ion mode: POSITIVE
Ionization: ESI
Collision energy: 6.0000000
Column name: Acquity CSHC18
Retention time: 10.528 min
Base peak: 937.58902
Precursor m/z: 937.58902
Precursor type: [M+H]+
m/z	relative intensity
261.2217	13
317.1804	17
333.1973	26
335.2059	64
336.2634	19
337.2721	20
349.1597	36
475.2641	57
475.7663	34
476.2702	28
488.2712	999
488.7733	579
489.2738	206
489.7762	52
490.2633	20
496.2591	24
531.4082	39
587.4672	19
595.4716	60
596.4748	21
613.4837	602
614.4866	264
615.4897	59
659.3639	48
757.523	35
758.5321	16
769.4837	11
775.5362	19
933.5489	17
