Mass spectrum: 3-METHOXYTYROSINE; LC-ESI-QFT; MS2; CE: 30eV;  [M+H]+
Name: 3-METHOXYTYROSINE
Class: NA
Formula: C10H13NO4
Exact mass: 211.08446
SMILES: COC1=CC(CC(N)C(O)=O)=CC=C1O
InChI: InChI=1S/C10H13NO4/c1-15-9-5-6(2-3-8(9)12)4-7(11)10(13)14/h2-3,5,7,12H,4,11H2,1H3,(H,13,14)
Instrument: Q-Exactive Orbitrap, Thermo Scientfic; Ultimate 3000 HPLC, Thermo Scientfic
Instrument type: LC-ESI-QFT
Ms type: MS2
Ion mode: POSITIVE
Ionization: ESI
Collision energy: 30eV
Column name: Acquity CSHC18
Retention time: 1.282 min
Base peak: 212.0917
Precursor m/z: 212.0917
Precursor type: [M+H]+
Precursor intensity: 113
m/z	relative intensity
52.0276	2
59.9979	2
63.1216	2
65.0393	5
67.8855	2
68.0459	2
68.3383	2
75.7809	2
81.9539	2
82.3215	2
91.0551	20
93.0342	23
94.4527	2
95.0498	3
106.0659	29
107.0497	3
107.3765	2
110.0365	2
111.0448	26
111.5959	3
112.9913	2
114.9365	2
119.0498	43
121.0655	38
125.0603	113
126.0635	4
126.3228	2
134.0368	3
134.0607	79
136.0625	3
137.0602	12
150.0636	75
151.0398	2
151.076	30
154.0585	80
163.0394	20
167.0709	5
167.0901	76
177.0552	112
178.0586	3
178.1779	2
195.0659	999
196.0692	63
212.0925	84
