Mass spectrum: Isorhapontigenin; LC-ESI-QTOF; MS2; CE: 15.00;  [M+H]+
Name: Isorhapontigenin
Class: NA
Formula: C15H14O4
Exact mass: 258.0892
SMILES: COC1=C(C=CC(=C1)C=CC2=CC(=CC(=C2)O)O)O
InChI: InChI=1S/C15H14O4/c1-19-15-8-10(4-5-14(15)18)2-3-11-6-12(16)9-13(17)7-11/h2-9,16-18H,1H3
Instrument: Bruker MicrOTOF-Q
Instrument type: LC-ESI-QTOF
Ms type: MS2
Ion mode: POSITIVE
Ionization: ESI
Collision energy: 15.00
Column name: Acquity CSHC18
Retention time: NA
Base peak: 259.0965
Precursor m/z: 259.0965
Precursor type: [M+H]+
m/z	relative intensity
121.0633	31
135.0428	35
149.0577	39
150.0654	43
153.0684	46
157.0643	47
171.0802	51
175.0748	52
181.0646	63
182.0687	66
195.0804	69
197.0593	73
198.0662	75
199.075	75
200.0787	85
209.0596	85
210.0651	107
213.0903	127
226.0619	138
227.0697	184
228.0753	230
241.0851	435
244.0724	527
259.0959	538
260.0991	999
