Mass spectrum: D-Glucuronic acid; ESI-TOF; MS2; CE: 0.6458333;  [M+H]+
Name: D-Glucuronic acid
Class: NA
Formula: C6H10O7
Exact mass: 194.04265
SMILES: OC1OC(C(O)C(O)C1O)C(O)=O
InChI: InChI=1S/C6H10O7/c7-1-2(8)4(5(10)11)13-6(12)3(1)9/h1-4,6-9,12H,(H,10,11)
Instrument: waters xevo g2 TOF
Instrument type: ESI-TOF
Ms type: MS2
Ion mode: POSITIVE
Ionization: ESI
Collision energy: 0.6458333
Column name: Acquity CSHC18
Retention time: 0.566 min
Base peak: 195.05065
Precursor m/z: 195.05065
Precursor type: [M+H]+
m/z	relative intensity
97.9677	999
100.9556	21
113.9407	127
113.9644	663
151.9565	63
154.967	2
155.9738	2
159.968	2
160.9888	20
174.9693	274
176.9711	79
184.9858	2
197.96	51
213.9555	2
217.0327	2
220.0044	2
247.9621	2
253.9492	55
257.9468	2
258.1717	2
307.9822	26
308.9896	2
382.9931	2
442.0049	2
