Mass spectrum: Xanthine; LC-ESI-ITFT; MS2; CE: 60;  [M-H]-
Name: Xanthine
Class: Organoheterocyclic compounds; Imidazopyrimidines; Purines and purine derivatives
Formula: C5H4N4O2
Exact mass: 152.03343
SMILES: O=C1NC2=C(NC=N2)C(=O)N1
InChI: InChI=1S/C5H4N4O2/c10-4-2-3(7-1-6-2)8-5(11)9-4/h1H,(H3,6,7,8,9,10,11)
Instrument: Thermo Scientific Q-Exactive Focus
Instrument type: LC-ESI-ITFT
Ms type: MS2
Ion mode: NEGATIVE
Ionization: ESI
Collision energy: 60
Column name: Acquity CSHC18
Retention time: 1.763 min
Base peak: 151.02615
Precursor m/z: 151.02615
Precursor type: [M-H]-
m/z	relative intensity
65.9973	999
72.0005	80
73.9029	77
96.6916	85
101.5678	78
102.7713	83
110.5016	81
112.6293	77
121.8438	79
124.2288	77
