Mass spectrum: 1-palmitoyl-2-docosahexaenoyl-sn-glycero-3-phosphocholine; ESI-TOF; MS2; CE: 6.0000000;  [M+H]+
Name: 1-palmitoyl-2-docosahexaenoyl-sn-glycero-3-phosphocholine
Class: NA
Formula: C46H80NO8P
Exact mass: 805.56216
SMILES: [H]C(=C([H])C([H])([H])C([H])=C([H])C([H])([H])C([H])=C([H])C([H])([H])C([H])([H])[H])C([H])([H])C([H])=C([H])C([H])([H])C([H])=C([H])C([H])([H])C([H])=C([H])C([H])([H])C([H])([H])C(=O)OC([H])(C([H])([H])OC(=O)C([H])([H])C([H])([H])C([H])([H])C([H])([H])C([H])([H])C([H])([H])C([H])([H])C([H])([H])C([H])([H])C([H])([H])C([H])([H])C([H])([H])C([H])([H])C([H])([H])C([H])([H])[H])C([H])([H])OP(=O)([O-])OC([H])([H])C([H])([H])[N+](C([H])([H])[H])(C([H])([H])[H])C([H])([H])[H]
InChI: InChI=1S/C46H80NO8P/c1-6-8-10-12-14-16-18-20-21-22-23-24-25-27-29-31-33-35-37-39-46(49)55-44(43-54-56(50,51)53-41-40-47(3,4)5)42-52-45(48)38-36-34-32-30-28-26-19-17-15-13-11-9-7-2/h8,10,14,16,20-21,23-24,27,29,33,35,44H,6-7,9,11-13,15,17-19,22,25-26,28,30-32,34,36-43H2,1-5H3
Instrument: waters xevo g2 TOF
Instrument type: ESI-TOF
Ms type: MS2
Ion mode: POSITIVE
Ionization: ESI
Collision energy: 6.0000000
Column name: Acquity CSHC18
Retention time: 10.882 min
Base peak: 806.57016
Precursor m/z: 806.57016
Precursor type: [M+H]+
m/z	relative intensity
101.9647	2
125.9869	5
184.074	3
213.6032	2
230.8916	4
278.1882	2
294.6404	2
295.195	24
331.2142	5
367.1949	98
368.1992	25
369.1995	3
371.1873	1
383.1672	17
384.169	3
387.1719	2
422.7644	144
423.2639	74
423.7641	19
424.2655	3
424.7588	2
430.7496	5
431.247	2
478.3299	157
479.3335	43
480.3372	5
487.7413	13
488.2437	4
495.7296	5
496.2892	1
515.4141	219
550.3309	25
551.3325	5
579.019	4
609.3592	2
623.5032	9
624.5091	2
671.9794	2
679.9661	61
680.4696	52
680.9698	26
681.4688	10
681.9681	4
687.9532	11
688.454	9
688.9548	9
689.4545	6
689.9533	4
744.943	3
745.4418	2
753.4277	2
806.5699	999
807.5735	533
