Mass spectrum: Guanidinosuccinic acid; ESI-TOF; MS2; CE: 6.0000000;  [M+H]+
Name: Guanidinosuccinic acid
Class: NA
Formula: C5H9N3O4
Exact mass: 175.05931
SMILES: NC(=N)NC(CC(O)=O)C(O)=O
InChI: InChI=1S/C5H9N3O4/c6-5(7)8-2(4(11)12)1-3(9)10/h2H,1H2,(H,9,10)(H,11,12)(H4,6,7,8)
Instrument: waters xevo g2 TOF
Instrument type: ESI-TOF
Ms type: MS2
Ion mode: POSITIVE
Ionization: ESI
Collision energy: 6.0000000
Column name: Acquity CSHC18
Retention time: 0.544 min
Base peak: 176.06731
Precursor m/z: 176.06731
Precursor type: [M+H]+
m/z	relative intensity
74.0249	5
86.0726	6
88.0403	41
98.0355	5
112.0514	12
114.9717	7
116.0361	21
121.011	1
124.9559	3
124.9574	2
130.0618	32
131.046	15
131.9752	3
134.0456	83
135.0496	3
140.0466	8
145.0609	4
145.9556	24
158.0572	122
159.0582	7
160.9897	6
173.0788	1
176.0672	999
177.0699	74
178.072	10
190.0827	38
194.1164	2
249.8863	1
302.1979	3
