Mass spectrum: Eupasserin, dessarracenate; LC-ESI-ITFT; MS2; CE: 50eV;  [M+H]+
Name: Eupasserin, dessarracenate
Class: Sesquiterpenelactone; Guaianolide
Formula: C15H20O4
Exact mass: 264.1362
SMILES: C=C1[C@@H]2[C@H](O)CC(C)=C[C@@H](O)CC(C)=C[C@H]2OC1=O
InChI: InChI=1S/C15H20O4/c1-8-4-11(16)5-9(2)7-13-14(12(17)6-8)10(3)15(18)19-13/h4,7,11-14,16-17H,3,5-6H2,1-2H3/t11-,12-,13-,14-/m1/s1
Instrument: Q Exactive Plus, ThermoFisher Scientific
Instrument type: LC-ESI-ITFT
Ms type: MS2
Ion mode: POSITIVE
Ionization: ESI
Collision energy: 50eV
Column name: Acquity CSHC18
Retention time: 3.767 min
Base peak: 265.1429
Precursor m/z: 265.1429
Precursor type: [M+H]+
Precursor intensity: 31754250
m/z	relative intensity
93.0705	15
95.049	13
107.7856	10
117.0706	100
119.0857	17
133.1014	42
134.0723	18
135.0807	19
143.0848	96
145.0643	102
157.1003	59
163.0754	14
173.0602	75
173.1308	20
181.1004	47
183.1168	707
187.0739	14
189.09	144
191.0706	632
193.1007	47
201.1283	123
209.0797	13
211.113	277
219.1374	23
229.1205	237
247.1335	999
248.135	16
265.1443	452
