Mass spectrum: Adipic acid; ESI-TOF; MS2; CE: 6.0000000;  [M+H]+
Name: Adipic acid
Class: NA
Formula: C6H10O4
Exact mass: 146.05791
SMILES: OC(=O)CCCCC(O)=O
InChI: InChI=1S/C6H10O4/c7-5(8)3-1-2-4-6(9)10/h1-4H2,(H,7,8)(H,9,10)
Instrument: waters xevo g2 TOF
Instrument type: ESI-TOF
Ms type: MS2
Ion mode: POSITIVE
Ionization: ESI
Collision energy: 6.0000000
Column name: Acquity CSHC18
Retention time: 1.680 min
Base peak: 147.06591
Precursor m/z: 147.06591
Precursor type: [M+H]+
m/z	relative intensity
83.0498	107
101.0603	264
111.0449	352
112.0488	23
115.0234	23
129.0547	40
137.9881	19
143.0709	86
155.9877	55
157.0135	22
163.9787	19
166.0238	86
167.0025	35
169.0478	778
170.0264	26
185.0128	283
186.0141	15
191.0294	65
199.9778	8
202.9844	12
211.0193	3
213.9926	62
217.0365	28
226.0343	12
230.0097	23
232.0035	149
233.0063	24
238.0287	23
240.0425	9
242.0111	33
244.0074	59
246.0158	30
272.0364	14
284.0345	192
285.0392	25
315.0924	34
317.0821	44
328.0273	62
329.0319	39
331.0694	744
332.0751	106
333.0748	16
335.0637	19
344.0396	62
346.0352	999
347.0407	366
348.0431	62
349.0448	211
350.0465	21
351.0398	87
353.0468	35
477.1315	32
530.0406	54
545.0071	45
546.0057	24
