Mass spectrum: Prostaglandin D2 methyl ester; ESI-TOF; MS2; CE: 6.0000000;  [M+H]+
Name: Prostaglandin D2 methyl ester
Class: NA
Formula: C21H34O5
Exact mass: 366.24062
SMILES: CCCCCC(O)/C=C/[C@H]1C(=O)CC(O)C1C/C=C\CCCC(=O)OC
InChI: InChI=1S/C21H34O5/c1-3-4-7-10-16(22)13-14-18-17(19(23)15-20(18)24)11-8-5-6-9-12-21(25)26-2/h5,8,13-14,16-19,22-23H,3-4,6-7,9-12,15H2,1-2H3/b8-5-,14-13+/t16?,17?,18-,19?/m1/s1
Instrument: waters xevo g2 TOF
Instrument type: ESI-TOF
Ms type: MS2
Ion mode: POSITIVE
Ionization: ESI
Collision energy: 6.0000000
Column name: Acquity CSHC18
Retention time: 3.954 min
Base peak: 367.24862
Precursor m/z: 367.24862
Precursor type: [M+H]+
m/z	relative intensity
95.0872	2
107.086	2
131.0866	3
133.0661	5
147.08	5
161.1141	8
163.0759	12
165.1281	4
169.1016	4
173.0972	13
185.0929	32
187.1307	5
189.1273	13
191.1232	14
194.0975	264
194.5983	21
199.0695	2
203.1039	62
203.6012	5
205.1585	8
207.1278	13
209.1532	4
210.1077	6
215.1429	9
229.1232	3
233.1541	81
234.1571	13
235.1316	6
239.1059	7
245.1962	7
247.1144	2
253.1938	13
254.1992	4
255.1755	7
257.1899	42
271.2052	76
272.208	14
273.1834	7
275.1963	12
277.1449	2
281.1898	88
282.1912	12
289.2161	45
290.2184	7
294.0597	1
296.0588	4
299.201	478
300.2034	83
301.2055	8
303.2322	51
304.2389	9
305.2116	16
313.215	93
314.2212	16
315.1687	3
317.2113	336
318.2135	62
331.2265	999
332.2305	232
333.231	14
349.2381	906
350.2408	187
351.2403	21
355.2054	3
366.2603	5
