Mass spectrum: Normetanephrine; ESI-TOF; MS2; CE: 6.0000000;  [M+H]+
Name: Normetanephrine
Class: NA
Formula: C9H13NO3
Exact mass: 183.08954
SMILES: COC1=CC(=CC=C1O)C(O)CN
InChI: InChI=1S/C9H13NO3/c1-13-9-4-6(8(12)5-10)2-3-7(9)11/h2-4,8,11-12H,5,10H2,1H3
Instrument: waters xevo g2 TOF
Instrument type: ESI-TOF
Ms type: MS2
Ion mode: POSITIVE
Ionization: ESI
Collision energy: 6.0000000
Column name: Acquity CSHC18
Retention time: 0.555 min
Base peak: 184.09754
Precursor m/z: 184.09754
Precursor type: [M+H]+
m/z	relative intensity
77.0397	8
79.0551	5
91.0551	4
93.0706	1
95.0501	27
96.0497	1
106.066	170
107.0503	16
108.054	1
116.0503	3
117.0573	4
118.0653	1
119.0498	2
121.0663	102
122.0684	30
123.0449	37
124.0523	20
131.0507	2
133.0531	17
134.0608	999
135.0659	145
136.0696	11
137.0606	89
138.0637	8
139.0757	26
140.0779	2
145.9556	2
148.0763	83
149.0925	799
150.0125	85
151.0636	186
152.0667	19
163.0334	1
165.0791	14
165.5824	2
166.9981	722
169.095	9
172.9572	3
178.0861	2
180.1024	26
181.106	2
