Mass spectrum: Taxifolin-3-glucopyranoside; LC-ESI-QTOF; MS2; CE: 20-40eV;  [M+H]+
Name: Taxifolin-3-glucopyranoside
Class: flavonoid
Formula: C21H22O12
Exact mass: 466.1111
SMILES: C1=CC(=C(C=C1C2(C(C(C3=C(C=C(C=C3O2)O)O)=O)(OC4(C(C(C(C(CO)(O4)[H])(O)[H])(O)[H])(O)[H])[H])[H])[H])O)O
InChI: InChI=1S/C21H22O12/c22-6-13-15(27)17(29)18(30)21(32-13)33-20-16(28)14-11(26)4-8(23)5-12(14)31-19(20)7-1-2-9(24)10(25)3-7/h1-5,13,15,17-27,29-30H,6H2
Instrument: Impact II, Bruker; Dionex 3000, Thermo Scientific
Instrument type: LC-ESI-QTOF
Ms type: MS2
Ion mode: POSITIVE
Ionization: ESI
Collision energy: 20-40eV
Column name: Acquity CSHC18
Retention time: 3.396 min
Base peak: 467.1169
Precursor m/z: 467.1169
Precursor type: [M+H]+
Precursor intensity: 14412.75
m/z	relative intensity
123.042	159
153.0173	255
163.038	297
167.0343	129
195.0303	65
204.0396	46
231.0647	182
241.05	69
259.0603	300
272.0711	85
287.0565	82
305.065	999
306.0686	185
308.1967	119
419.0443	49
