Mass spectrum: 1-Stearoyl-2-Hydroxy-sn-Glycero-3-Phosphoethanolamine; ESI-TOF; MS2; CE: 0.6458333;  [M+H]+
Name: 1-Stearoyl-2-Hydroxy-sn-Glycero-3-Phosphoethanolamine
Class: NA
Formula: C23H48NO7P
Exact mass: 481.31684
SMILES: [H]OC([H])(C([H])([H])OC(=O)C([H])([H])C([H])([H])C([H])([H])C([H])([H])C([H])([H])C([H])([H])C([H])([H])C([H])([H])C([H])([H])C([H])([H])C([H])([H])C([H])([H])C([H])([H])C([H])([H])C([H])([H])C([H])([H])C([H])([H])[H])C([H])([H])OP(=O)([O-])OC([H])([H])C([H])([H])[N+]([H])([H])[H]
InChI: InChI=1S/C23H48NO7P/c1-2-3-4-5-6-7-8-9-10-11-12-13-14-15-16-17-23(26)29-20-22(25)21-31-32(27,28)30-19-18-24/h22,25H,2-21,24H2,1H3,(H,27,28)
Instrument: waters xevo g2 TOF
Instrument type: ESI-TOF
Ms type: MS2
Ion mode: POSITIVE
Ionization: ESI
Collision energy: 0.6458333
Column name: Acquity CSHC18
Retention time: 7.288 min
Base peak: 482.32484
Precursor m/z: 482.32484
Precursor type: [M+H]+
m/z	relative intensity
62.0615	15
71.0864	18
83.0863	9
85.102	19
95.0861	37
97.1018	12
98.9841	8
109.1018	17
111.1172	6
123.1179	9
136.9321	89
155.0113	114
173.021	9
192.9581	46
198.0543	20
216.0641	26
267.2686	20
269.9816	5
271.984	17
285.2813	6
310.3112	141
311.3161	13
323.2254	13
341.3055	999
342.3089	243
343.3111	31
403.1922	26
421.2719	77
443.2526	46
459.2188	142
460.2212	28
461.259	97
464.3139	243
465.3175	62
466.3184	8
482.3235	454
483.3282	251
