Mass spectrum: 16,16-dimethyl Prostaglandin F2-alpha; ESI-TOF; MS2; CE: 0.6458333;  [M+H]+
Name: 16,16-dimethyl Prostaglandin F2-alpha
Class: NA
Formula: C22H38O5
Exact mass: 382.27192
SMILES: CCCCC(C)(C)C(C=CC1C(CC(C1CC=CCCCC(=O)O)O)O)O
InChI: InChI=1S/C22H38O5/c1-4-5-14-22(2,3)20(25)13-12-17-16(18(23)15-19(17)24)10-8-6-7-9-11-21(26)27/h6,8,12-13,16-20,23-25H,4-5,7,9-11,14-15H2,1-3H3,(H,26,27)
Instrument: waters xevo g2 TOF
Instrument type: ESI-TOF
Ms type: MS2
Ion mode: POSITIVE
Ionization: ESI
Collision energy: 0.6458333
Column name: Acquity CSHC18
Retention time: 4.140 min
Base peak: 383.27992
Precursor m/z: 383.27992
Precursor type: [M+H]+
m/z	relative intensity
79.0541	108
81.0698	173
87.0441	76
91.0551	178
93.0706	206
95.0867	189
99.0456	16
105.0709	267
107.0864	188
111.1171	23
115.04	55
117.0713	213
119.0867	209
121.1021	204
129.0704	235
131.086	357
133.1021	235
135.1178	90
141.0716	71
142.0781	62
143.0867	254
145.1024	348
147.1173	161
149.1147	70
151.1486	43
157.1031	296
158.1052	34
159.1175	179
161.0955	84
163.1489	58
164.1179	9
171.1172	316
172.1203	12
173.1342	85
175.1113	139
179.1078	33
181.1218	53
185.0631	87
187.1125	120
189.1273	86
193.1228	53
195.1335	57
199.1131	198
200.1132	11
201.1654	100
203.176	28
205.0793	55
209.1354	58
211.1491	35
213.1295	128
217.1229	143
218.1267	3
219.1374	54
221.1172	24
223.1462	19
225.1709	15
227.1454	59
231.1379	157
235.1329	31
237.163	50
243.1747	11
245.1939	16
247.1629	15
249.1499	22
255.1749	38
277.0502	35
283.2395	14
285.2209	48
287.2381	17
290.0975	81
294.2421	12
303.2326	94
304.2342	9
311.2377	157
312.2386	38
319.2414	8
329.2475	661
330.2512	155
333.2432	11
341.212	38
342.1668	49
343.2205	112
346.1589	71
347.2591	169
348.2624	32
359.1921	999
360.1935	125
365.269	61
369.2397	72
371.2775	20
375.1616	475
377.1627	113
385.2038	87
