Mass spectrum: MEVALONATE; LC-ESI-QTOF; MS2; CE: 20;  [M-H]-
Name: MEVALONATE
Class: NA
Formula: C6H12O4
Exact mass: 148.07356
SMILES: CC(O)(CCO)CC(O)=O
InChI: InChI=1S/C6H12O4/c1-6(10,2-3-7)4-5(8)9/h7,10H,2-4H2,1H3,(H,8,9)
Instrument: Agilent 6530Â Q-TOF LC/MS
Instrument type: LC-ESI-QTOF
Ms type: MS2
Ion mode: NEGATIVE
Ionization: ESI
Collision energy: 20
Column name: NA
Retention time: 0.200 min
Base peak: 147.06579
Precursor m/z: 147.06579
Precursor type: [M-H]-
Precursor intensity: 182
m/z	relative intensity
41.0085	274
57.0411	325
59.0331	999
