Mass spectrum: 3,5-DIIODO-L-TYROSINE; LC-ESI-QTOF; MS2; CE: 40;  [M+H]+
Name: 3,5-DIIODO-L-TYROSINE
Class: NA
Formula: C9H9I2NO3
Exact mass: 432.86719
SMILES: [H][C@](N)(CC1=CC(I)=C(O)C(I)=C1)C(O)=O
InChI: InChI=1S/C9H9I2NO3/c10-5-1-4(2-6(11)8(5)13)3-7(12)9(14)15/h1-2,7,13H,3,12H2,(H,14,15)/t7-/m0/s1
Instrument: Agilent 6530Â Q-TOF LC/MS
Instrument type: LC-ESI-QTOF
Ms type: MS2
Ion mode: POSITIVE
Ionization: ESI
Collision energy: 40
Column name: NA
Retention time: 0.200 min
Base peak: 433.87243
Precursor m/z: 433.87243
Precursor type: [M+H]+
Precursor intensity: 50.5
m/z	relative intensity
77.034	173
79.0516	197
80.0509	202
105.0671	210
106.0534	221
107.0621	222
116.043	224
119.0848	230
120.0216	241
133.053	251
134.0763	252
135.0736	297
216.1204	305
219.9497	322
227.9428	362
232.9496	412
233.9566	417
243.9448	440
260.9756	683
374.8266	688
387.8644	999
