Mass spectrum: 3,5-DIIODO-L-TYROSINE; LC-ESI-QFT; MS2; CE: 30eV;  [M-H]-
Name: 3,5-DIIODO-L-TYROSINE
Class: NA
Formula: C9H9I2NO3
Exact mass: 432.86719
SMILES: N[C@@H](CC1=CC(I)=C(O)C(I)=C1)C(O)=O
InChI: InChI=1S/C9H9I2NO3/c10-5-1-4(2-6(11)8(5)13)3-7(12)9(14)15/h1-2,7,13H,3,12H2,(H,14,15)/t7-/m0/s1
Instrument: Q-Exactive Orbitrap, Thermo Scientfic; Ultimate 3000 HPLC, Thermo Scientfic
Instrument type: LC-ESI-QFT
Ms type: MS2
Ion mode: NEGATIVE
Ionization: ESI
Collision energy: 30eV
Column name: Acquity CSHC18
Retention time: 5.830 min
Base peak: 431.8599
Precursor m/z: 431.8599
Precursor type: [M-H]-
Precursor intensity: 173
m/z	relative intensity
53.3791	5
55.057	5
61.8783	5
67.467	6
70.7146	5
72.0076	23
72.2032	5
74.6777	5
77.5983	5
80.5265	6
81.3399	6
87.6986	6
120.2554	6
170.3872	5
170.6217	5
189.8095	6
199.8395	6
205.1816	6
208.4046	7
224.4097	6
237.9685	6
243.1562	6
244.5723	6
244.9467	335
248.0291	6
250.445	6
259.9578	563
260.9657	85
304.4213	6
344.8284	134
357.8362	341
358.8419	14
370.8438	999
371.8466	54
375.1679	6
414.8336	26
431.8604	312
432.8629	12
