Mass spectrum: p-Coumaroyl quinic acid; LC-ESI-ITFT; MS2; CE: 35eV;  [M-H]-
Name: p-Coumaroyl quinic acid
Class: Hydroxycinnamic ester
Formula: C16H18O8
Exact mass: 338.1002
SMILES: C1C(C(C(CC1(C(=O)O)O)O)OC(=O)C=CC2=CC=C(C=C2)O)O
InChI: InChI=1S/C16H18O8/c17-10-4-1-9(2-5-10)3-6-13(20)24-14-11(18)7-16(23,15(21)22)8-12(14)19/h1-6,11-12,14,17-19,23H,7-8H2,(H,21,22)
Instrument: LTQ Orbitrap XL, Thermo Scientfic; Dionex Ultimate 300
Instrument type: LC-ESI-ITFT
Ms type: MS2
Ion mode: NEGATIVE
Ionization: ESI
Collision energy: 35eV
Column name: Lichrospher C18 Column 250*4 5um, Interchim
Retention time: 33.305 min
Base peak: 337.0929
Precursor m/z: 337.0929
Precursor type: [M-H]-
m/z	relative intensity
162.2759	1
179.0656	1
180.2254	1
191.2075	18
292.1516	3
293.1475	1
337.128	999
