Mass spectrum: CORTICOSTERONE; LC-ESI-QTOF; MS2; CE: -10, -35, -60V;  [M-H]-
Name: CORTICOSTERONE
Class: NA
Formula: C21H30O4
Exact mass: 346.2144
SMILES: CC12CCC(=O)C=C1CCC3C2C(CC4(C3CCC4C(=O)CO)C)O
InChI: InChI=1S/C21H30O4/c1-20-8-7-13(23)9-12(20)3-4-14-15-5-6-16(18(25)11-22)21(15,2)10-17(24)19(14)20/h9,14-17,19,22,24H,3-8,10-11H2,1-2H3
Instrument: TripleToF 5600; Sciex
Instrument type: LC-ESI-QTOF
Ms type: MS2
Ion mode: NEGATIVE
Ionization: ESI
Collision energy: -10, -35, -60V
Column name: Acquity CSHC18
Retention time: 15.729 min
Base peak: 345.2009
Precursor m/z: 345.2009
Precursor type: [M-H]-
Precursor intensity: 16113
m/z	relative intensity
87.0479	27
170.1248	43
173.0612	45
189.097	30
241.1554	206
242.1583	155
258.1713	72
282.1802	21
297.1927	25
299.2061	27
327.1939	175
328.2033	34
343.1955	155
345.2042	999
