Mass spectrum: Scopolin; LC-ESI-QTOF; MS2; CE: 15.00;  [M-C6H10O5+H]+
Name: Scopolin
Class: NA
Formula: C16H18O9
Exact mass: 354.0951
SMILES: COC1=C(C=C2C(=C1)C=CC(=O)O2)OC3C(C(C(C(O3)CO)O)O)O
InChI: InChI=1S/C16H18O9/c1-22-9-4-7-2-3-12(18)23-8(7)5-10(9)24-16-15(21)14(20)13(19)11(6-17)25-16/h2-5,11,13-17,19-21H,6H2,1H3
Instrument: Bruker MicrOTOF-Q
Instrument type: LC-ESI-QTOF
Ms type: MS2
Ion mode: POSITIVE
Ionization: ESI
Collision energy: 15.00
Column name: Acquity CSHC18
Retention time: NA
Base peak: 193.0495
Precursor m/z: 193.0495
Precursor type: [M-C6H10O5+H]+
m/z	relative intensity
117.03	8
122.03	47
132.83	3
132.94	5
133.03	350
133.1	5
134.03	43
137.06	141
138.09	4
145.67	5
149.06	32
150.03	30
151.03	5
151.95	3
161.02	8
163.87	4
165.05	57
166.05	5
178.02	692
178.19	6
178.46	4
179.03	52
180.03	6
182.42	3
182.5	5
192.88	4
193.05	999
193.3	4
193.5	4
193.99	5
194.05	115
195.04	3
196.04	4
355.9	6
