Mass spectrum: Luteolin-7-O-glucoside; LC-ESI-QTOF; MS2; CE: 26.03 / 26.11;  [M-H]-
Name: Luteolin-7-O-glucoside
Class: NA
Formula: C21H20O11
Exact mass: 448.1006
SMILES: C1=CC(=C(C=C1C2=CC(=O)C3=C(C=C(C=C3O2)OC4C(C(C(C(O4)CO)O)O)O)O)O)O
InChI: InChI=1S/C21H20O11/c22-7-16-18(27)19(28)20(29)21(32-16)30-9-4-12(25)17-13(26)6-14(31-15(17)5-9)8-1-2-10(23)11(24)3-8/h1-6,16,18-25,27-29H,7H2
Instrument: Bruker MicrOTOF-Q
Instrument type: LC-ESI-QTOF
Ms type: MS2
Ion mode: NEGATIVE
Ionization: ESI
Collision energy: 26.03 / 26.11
Column name: Acquity CSHC18
Retention time: NA
Base peak: 447.0933
Precursor m/z: 447.0933
Precursor type: [M-H]-
m/z	relative intensity
151.0023	3
175.0386	2
199.0399	9
201.0195	5
211.0395	5
212.0516	2
213.0517	3
217.0511	9
227.0346	6
239.0332	2
241.0501	10
243.0323	6
255.0309	24
256.0375	27
257.0426	9
269.0458	12
281.0469	2
283.0239	12
284.04	679
285.0259	999
285.9415	313
287.0462	90
288.048	6
297.0405	15
298.0463	6
299.0544	12
327.0509	44
328.054	7
447.0934	67
448.0971	16
