Mass spectrum: Mannitol; LC-ESI-ITFT; MS2; CE: 30;  [M-H]-
Name: Mannitol
Class: Organic oxygen compounds; Organooxygen compounds; Carbohydrates and carbohydrate conjugates
Formula: C6H14O6
Exact mass: 182.07904
SMILES: OC[C@@H](O)[C@@H](O)[C@H](O)[C@H](O)CO
InChI: InChI=1S/C6H14O6/c7-1-3(9)5(11)6(12)4(10)2-8/h3-12H,1-2H2/t3-,4-,5-,6-/m1/s1
Instrument: Thermo Scientific Q-Exactive Focus
Instrument type: LC-ESI-ITFT
Ms type: MS2
Ion mode: NEGATIVE
Ionization: ESI
Collision energy: 30
Column name: Acquity CSHC18
Retention time: 0.930 min
Base peak: 181.07176
Precursor m/z: 181.07176
Precursor type: [M-H]-
m/z	relative intensity
55.0178	131
58.0048	39
59.0126	853
69.0334	23
71.0126	999
72.9919	32
73.0283	97
83.0126	41
85.0282	35
101.0232	20
