Mass spectrum: Acetamide; LC-ESI-ITFT; MS2; CE: 100;  [M+H]+
Name: Acetamide
Class: Organic acids and derivatives; Carboximidic acids and derivatives; Carboximidic acids
Formula: C2H5NO
Exact mass: 59.03711
SMILES: CC(N)=O
InChI: InChI=1S/C2H5NO/c1-2(3)4/h1H3,(H2,3,4)
Instrument: Thermo Scientific Q-Exactive Focus
Instrument type: LC-ESI-ITFT
Ms type: MS2
Ion mode: POSITIVE
Ionization: ESI
Collision energy: 100
Column name: Acquity CSHC18
Retention time: 1.669 min
Base peak: 60.04439
Precursor m/z: 60.04439
Precursor type: [M+H]+
m/z	relative intensity
51.1441	793
51.4059	903
52.2632	829
57.9284	905
59.9413	999
61.9132	896
64.471	825
74.0643	865
74.563	825
77.3878	877
