Mass spectrum: gnetin H; LC-ESI-ITFT; MS2; CE: 0.3;  [M+H]+
Name: gnetin H
Class: stilbenes
Formula: C42H32O9
Exact mass: 680.2046
SMILES: C1=CC(=CC=C1C=CC2=C3C(C(OC3=CC4=C2C(C(O4)C5=CC=C(C=C5)O)C6=CC(=CC(=C6)O)O)C7=CC=C(C=C7)O)C8=CC(=CC(=C8)O)O)O
InChI: InChI=1S/C42H32O9/c43-27-8-1-22(2-9-27)3-14-34-39-35(50-41(23-4-10-28(44)11-5-23)37(39)25-15-30(46)19-31(47)16-25)21-36-40(34)38(26-17-32(48)20-33(49)18-26)42(51-36)24-6-12-29(45)13-7-24/h1-21,37-38,41-49H
Instrument: LTQ-Orbitrap XL hybrid mass spectrometer (Thermo Scientific)
Instrument type: LC-ESI-ITFT
Ms type: MS2
Ion mode: POSITIVE
Ionization: ESI
Collision energy: 0.3
Column name: Acquity CSHC18
Retention time: 8.556 min
Base peak: 681.2086
Precursor m/z: 681.2086
Precursor type: [M+H]+
Precursor intensity: 2483696
m/z	relative intensity
177.9443	3
187.4067	3
189.399	3
196.1172	3
199.0741	10
215.0694	23
225.6825	4
226.0807	4
227.0702	5
229.0839	10
229.628	3
239.0667	7
248.1684	4
250.8015	4
258.1856	3
258.2094	3
267.703	4
273.5391	4
281.5186	3
282.1573	4
287.0828	7
306.3658	4
311.3768	4
320.8436	4
331.0947	9
340.3803	5
343.0956	6
345.0695	6
345.1124	9
347.0898	60
348.0898	6
351.6383	4
357.0956	4
359.0899	55
360.0949	8
371.0875	9
387.0848	12
392.5655	5
398.3064	5
403.5923	6
405.8468	4
406.104	5
407.8664	5
410.3824	5
415.4659	6
416.3418	4
420.4623	5
430.6812	4
433.5958	5
435.1209	18
438.3463	5
441.1355	9
445.0975	5
447.9178	4
450.1022	7
451.117	52
451.2714	7
452.1216	11
453.1315	76
454.1336	11
457.7464	7
461.4387	7
463.1152	44
463.5001	6
464.1215	16
464.8729	5
465.1305	67
466.1143	16
467.112	57
469.127	18
475.124	11
477.1312	37
478.718	7
479.109	18
480.1163	17
481.1258	152
481.5143	5
481.5894	6
482.1328	25
482.5985	5
484.8782	5
487.0877	7
492.9175	5
493.1264	119
494.1297	17
497.4095	6
498.4345	5
505.7788	5
506.5682	5
507.468	5
508.4567	5
514.1123	5
516.6423	6
524.6533	6
529.8148	5
530.4392	5
534.6147	6
541.1594	9
542.8558	7
545.435	5
548.626	5
551.1403	6
557.1566	78
558.1614	25
559.1733	30
563.8908	5
563.9709	5
565.2671	6
569.1589	57
570.1571	10
571.1727	58
573.1503	48
574.1583	84
575.1669	999
576.1712	137
577.2787	8
577.9569	5
581.0183	5
587.1669	769
588.1723	114
592.0023	5
602.8186	5
605.8305	6
606.9913	7
609.2191	6
611.6758	7
620.9926	5
621.0491	6
630.721	6
636.6672	6
642.4802	5
644.3102	8
652.7892	7
663.1998	90
664.203	25
673.9742	5
