Mass spectrum: CYSTATHIONINE; LC-ESI-QFT; MS2; CE: 30eV;  [M-H]-
Name: CYSTATHIONINE
Class: NA
Formula: C7H14N2O4S
Exact mass: 222.06743
SMILES: N[C@@H](CCSC[C@H](N)C(O)=O)C(O)=O
InChI: InChI=1S/C7H14N2O4S/c8-4(6(10)11)1-2-14-3-5(9)7(12)13/h4-5H,1-3,8-9H2,(H,10,11)(H,12,13)/t4-,5-/m0/s1
Instrument: Q-Exactive Orbitrap, Thermo Scientfic; Ultimate 3000 HPLC, Thermo Scientfic
Instrument type: LC-ESI-QFT
Ms type: MS2
Ion mode: NEGATIVE
Ionization: ESI
Collision energy: 30eV
Column name: Acquity CSHC18
Retention time: 0.532 min
Base peak: 221.0602
Precursor m/z: 221.0602
Precursor type: [M-H]-
Precursor intensity: 161
m/z	relative intensity
50.0906	4
50.9424	4
51.0567	5
51.9424	5
55.1251	4
56.8388	4
57.4989	5
60.6509	4
66.9221	5
67.4323	5
72.9629	5
76.5239	4
80.5271	5
83.0235	5
85.0026	25
86.023	35
92.8812	5
98.788	5
120.0108	699
121.014	13
123.9001	5
131.9057	7
134.0264	999
135.0297	21
144.6177	5
148.9532	113
164.2416	5
167.445	5
168.6228	5
196.08	5
221.0589	129
222.0626	8
