Mass spectrum: Latanoprost ethyl amide; ESI-TOF; MS2; CE: 0.6458333;  [M+H]+
Name: Latanoprost ethyl amide
Class: NA
Formula: C25H39NO4
Exact mass: 417.28791
SMILES: O[C@@H]1[C@H](C/C=C\CCCC(N([H])CC)=O)[C@@H](CC[C@@H](O)CCC2=CC=CC=C2)[C@H](O)C1
InChI: InChI=1S/C25H39NO4/c1-2-26-25(30)13-9-4-3-8-12-21-22(24(29)18-23(21)28)17-16-20(27)15-14-19-10-6-5-7-11-19/h3,5-8,10-11,20-24,27-29H,2,4,9,12-18H2,1H3,(H,26,30)/b8-3-/t20-,21+,22+,23-,24+/m0/s1
Instrument: waters xevo g2 TOF
Instrument type: ESI-TOF
Ms type: MS2
Ion mode: POSITIVE
Ionization: ESI
Collision energy: 0.6458333
Column name: Acquity CSHC18
Retention time: 3.480 min
Base peak: 418.29591
Precursor m/z: 418.29591
Precursor type: [M+H]+
m/z	relative intensity
83.0858	36
91.0551	904
92.0587	40
100.0756	66
105.0711	839
106.0741	60
120.0893	16
135.081	45
140.1074	32
141.0705	240
142.1236	172
144.089	43
146.1046	30
147.1176	346
148.1194	22
156.1386	127
158.1183	999
161.1153	526
167.0787	79
180.139	27
182.1071	22
186.1351	24
188.1121	16
189.1263	323
190.1316	26
191.1409	12
193.1012	26
195.1164	69
201.0459	24
203.1434	380
209.1326	323
210.1362	39
210.6147	34
211.1472	23
219.1141	54
220.1698	27
221.1336	82
222.1846	90
234.1854	227
235.1669	317
236.1871	14
241.1578	34
248.2011	431
249.2042	43
250.2167	203
251.2203	24
260.199	47
275.1927	41
277.1959	401
278.198	74
290.1366	17
302.1972	56
308.1337	32
309.2241	12
319.2044	623
320.2172	161
321.2162	12
337.2118	152
364.2749	956
365.2777	185
383.2787	153
399.1859	119
400.2857	388
401.2856	52
418.2975	77
