Mass spectrum: ALPHA-D-GLUCOSE; LC-ESI-QTOF; MS2; CE: 20;  [M-H]-
Name: ALPHA-D-GLUCOSE
Class: NA
Formula: C6H12O6
Exact mass: 180.06339
SMILES: OC[C@H]1O[C@H](O)[C@H](O)[C@@H](O)[C@@H]1O
InChI: InChI=1S/C6H12O6/c7-1-2-3(8)4(9)5(10)6(11)12-2/h2-11H,1H2/t2-,3-,4+,5-,6+/m1/s1
Instrument: Agilent 6530Â Q-TOF LC/MS
Instrument type: LC-ESI-QTOF
Ms type: MS2
Ion mode: NEGATIVE
Ionization: ESI
Collision energy: 20
Column name: NA
Retention time: 0.200 min
Base peak: 179.05757
Precursor m/z: 179.05757
Precursor type: [M-H]-
Precursor intensity: 180
m/z	relative intensity
41.0107	129
43.0253	153
44.9977	307
59.0335	311
71.0231	486
85.0299	999
