Mass spectrum: PANTOTHENATE; LC-ESI-QTOF; MS2; CE: 10;  [M-H]-
Name: PANTOTHENATE
Class: NA
Formula: C9H17NO5
Exact mass: 219.11067
SMILES: CC(C)(CO)C(O)C(=O)NCCC(O)=O
InChI: InChI=1S/C9H17NO5/c1-9(2,5-11)7(14)8(15)10-4-3-6(12)13/h7,11,14H,3-5H2,1-2H3,(H,10,15)(H,12,13)
Instrument: Agilent 6530Â Q-TOF LC/MS
Instrument type: LC-ESI-QTOF
Ms type: MS2
Ion mode: NEGATIVE
Ionization: ESI
Collision energy: 10
Column name: NA
Retention time: 0.200 min
Base peak: 218.10102
Precursor m/z: 218.10102
Precursor type: [M-H]-
Precursor intensity: 188
m/z	relative intensity
44.0218	129
71.0466	217
88.0619	392
99.0476	502
116.0701	626
146.101	741
218.1222	999
