Mass spectrum: H-Tyr-Leu-OH; LC-ESI-QTOF; MS2; CE: 31.79;  [2M+H]+
Name: H-Tyr-Leu-OH
Class: NA
Formula: C15H22N2O4
Exact mass: 294.1580
SMILES: CC(C)CC(C(=O)O)NC(=O)C(CC1=CC=C(C=C1)O)N
InChI: InChI=1S/C15H22N2O4/c1-9(2)7-13(15(20)21)17-14(19)12(16)8-10-3-5-11(18)6-4-10/h3-6,9,12-13,18H,7-8,16H2,1-2H3,(H,17,19)(H,20,21)
Instrument: Bruker MicrOTOF-Q
Instrument type: LC-ESI-QTOF
Ms type: MS2
Ion mode: POSITIVE
Ionization: ESI
Collision energy: 31.79
Column name: Acquity CSHC18
Retention time: NA
Base peak: 589.3232
Precursor m/z: 589.3232
Precursor type: [2M+H]+
m/z	relative intensity
278.14	116
295.16	999
296.17	154
