Mass spectrum: 5-Methoxyindoleacetate; LC-ESI-ITFT; MS2; CE: 40;  [M+H]+
Name: 5-Methoxyindoleacetate
Class: Organoheterocyclic compounds; Indoles and derivatives; Indolyl carboxylic acids and derivatives
Formula: C11H11NO3
Exact mass: 205.07389
SMILES: COC1=CC2=C(NC=C2CC(O)=O)C=C1
InChI: InChI=1S/C11H11NO3/c1-15-8-2-3-10-9(5-8)7(6-12-10)4-11(13)14/h2-3,5-6,12H,4H2,1H3,(H,13,14)
Instrument: Thermo Scientific Q-Exactive Focus
Instrument type: LC-ESI-ITFT
Ms type: MS2
Ion mode: POSITIVE
Ionization: ESI
Collision energy: 40
Column name: Acquity CSHC18
Retention time: 1.463 min
Base peak: 206.08118
Precursor m/z: 206.08118
Precursor type: [M+H]+
m/z	relative intensity
90.0468	90
95.0495	40
103.0546	149
104.0498	55
117.0576	999
118.0415	69
130.0652	52
133.0649	161
145.0523	479
160.0757	135
