Mass spectrum: myo-Inositol; LC-ESI-ITFT; MS2; CE: 10;  [M-H]-
Name: myo-Inositol
Class: Organic oxygen compounds; Organooxygen compounds; Alcohols and polyols
Formula: C6H12O6
Exact mass: 180.06339
SMILES: O[C@H]1[C@H](O)[C@@H](O)[C@H](O)[C@H](O)[C@@H]1O
InChI: InChI=1S/C6H12O6/c7-1-2(8)4(10)6(12)5(11)3(1)9/h1-12H/t1-,2-,3-,4+,5-,6-
Instrument: Thermo Scientific Q-Exactive Focus
Instrument type: LC-ESI-ITFT
Ms type: MS2
Ion mode: NEGATIVE
Ionization: ESI
Collision energy: 10
Column name: Acquity CSHC18
Retention time: 0.360 min
Base peak: 179.05611
Precursor m/z: 179.05611
Precursor type: [M-H]-
m/z	relative intensity
85.0283	64
87.0076	381
99.0076	89
117.0182	130
125.0233	70
134.9869	70
141.0183	58
150.953	60
161.0446	539
179.0553	999
