Mass spectrum: Chlorogenic acid; LC-ESI-QFT; MS2; CE: 15,30,45 (NCE);  [M+NH4]+
Name: Chlorogenic acid
Class: NA
Formula: C16H18O9
Exact mass: 354.0951
SMILES: C1C(C(C(CC1(C(=O)O)O)OC(=O)C=CC2=CC(=C(C=C2)O)O)O)O
InChI: InChI=1S/C16H18O9/c17-9-3-1-8(5-10(9)18)2-4-13(20)25-12-7-16(24,15(22)23)6-11(19)14(12)21/h1-5,11-12,14,17-19,21,24H,6-7H2,(H,22,23)
Instrument: QE Focus, Thermo Scientfic; UPLC I-Class, Waters
Instrument type: LC-ESI-QFT
Ms type: MS2
Ion mode: POSITIVE
Ionization: ESI
Collision energy: 15,30,45 (NCE)
Column name: Acquity CSHC18
Retention time: 0.887 min
Base peak: 372.1291
Precursor m/z: 372.1291
Precursor type: [M+NH4]+
Precursor intensity: 3666903
m/z	relative intensity
51.8356	1
57.8545	1
58.6608	1
66.7913	1
81.5888	1
83.0498	2
89.0392	6
97.6923	1
103.3727	1
111.0446	2
111.268	1
117.0341	12
135.0443	35
139.8131	1
145.0285	62
145.0401	2
163.0391	999
181.0499	3
255.9482	1
355.1024	48
