Mass spectrum: Phenethylamine; LC-ESI-QTOF; MS2; CE: 15.00;  [M+H]+
Name: Phenethylamine
Class: NA
Formula: C8H11N
Exact mass: 121.0891
SMILES: C1=CC=C(C=C1)CCN
InChI: InChI=1S/C8H11N/c9-7-6-8-4-2-1-3-5-8/h1-5H,6-7,9H2
Instrument: Bruker MicrOTOF-Q
Instrument type: LC-ESI-QTOF
Ms type: MS2
Ion mode: POSITIVE
Ionization: ESI
Collision energy: 15.00
Column name: Acquity CSHC18
Retention time: NA
Base peak: 122.0964
Precursor m/z: 122.0964
Precursor type: [M+H]+
m/z	relative intensity
102.043	4
103.052	280
104.0564	24
105.0676	999
105.1852	2
105.2466	2
105.3143	2
105.3609	1
106.0723	99
107.0732	1
122.0912	2
