Mass spectrum: L-Phenylalanine; LC-ESI-ITFT; MS2; CE: 100;  [M+H]+
Name: L-Phenylalanine
Class: Organic acids and derivatives; Carboxylic acids and derivatives; Amino acids, peptides, and analogues
Formula: C9H11NO2
Exact mass: 165.07898
SMILES: N[C@@H](CC1=CC=CC=C1)C(O)=O
InChI: InChI=1S/C9H11NO2/c10-8(9(11)12)6-7-4-2-1-3-5-7/h1-5,8H,6,10H2,(H,11,12)/t8-/m0/s1
Instrument: Thermo Scientific Q-Exactive Focus
Instrument type: LC-ESI-ITFT
Ms type: MS2
Ion mode: POSITIVE
Ionization: ESI
Collision energy: 100
Column name: Acquity CSHC18
Retention time: 2.570 min
Base peak: 166.08626
Precursor m/z: 166.08626
Precursor type: [M+H]+
m/z	relative intensity
50.0157	999
51.0235	874
53.0028	169
62.0157	93
63.0235	29
65.0027	74
65.0391	17
74.0155	95
99.9866	16
124.1242	16
