Mass spectrum: Citrulline; LC-ESI-ITFT; MS2; CE: 10;  [M-H]-
Name: Citrulline
Class: Organic acids and derivatives; Carboxylic acids and derivatives; Amino acids, peptides, and analogues
Formula: C6H13N3O3
Exact mass: 175.09569
SMILES: N[C@@H](CCCNC(N)=O)C(O)=O
InChI: InChI=1S/C6H13N3O3/c7-4(5(10)11)2-1-3-9-6(8)12/h4H,1-3,7H2,(H,10,11)(H3,8,9,12)/t4-/m0/s1
Instrument: Thermo Scientific Q-Exactive Focus
Instrument type: LC-ESI-ITFT
Ms type: MS2
Ion mode: NEGATIVE
Ionization: ESI
Collision energy: 10
Column name: Acquity CSHC18
Retention time: 0.364 min
Base peak: 174.08841
Precursor m/z: 174.08841
Precursor type: [M-H]-
m/z	relative intensity
61.9872	2
118.9651	7
130.874	3
131.0815	999
146.9601	64
155.946	5
157.061	1
174.0875	17
174.8279	1
174.9552	4
