Mass spectrum: Malondialdehyde; LC-ESI-ITFT; MS2; CE: 40;  [M+H]+
Name: Malondialdehyde
Class: Organic oxygen compounds; Organooxygen compounds; Carbonyl compounds
Formula: C3H4O2
Exact mass: 72.02113
SMILES: O=CCC=O
InChI: InChI=1S/C3H4O2/c4-2-1-3-5/h2-3H,1H2
Instrument: Thermo Scientific Q-Exactive Focus
Instrument type: LC-ESI-ITFT
Ms type: MS2
Ion mode: POSITIVE
Ionization: ESI
Collision energy: 40
Column name: Acquity CSHC18
Retention time: 1.463 min
Base peak: 73.02841
Precursor m/z: 73.02841
Precursor type: [M+H]+
m/z	relative intensity
50.8669	890
52.9413	937
56.9901	903
57.1351	889
57.3044	966
72.6247	945
80.2525	874
83.7748	999
86.495	916
89.9133	974
