Mass spectrum: Glutathione; ESI-TOF; MS2; CE: 6.0000000;  [M+H]+
Name: Glutathione
Class: NA
Formula: C10H17N3O6S
Exact mass: 307.08381
SMILES: NC(CCC(=O)NC(CS)C(=O)NCC(O)=O)C(O)=O
InChI: InChI=1S/C10H17N3O6S/c11-5(10(18)19)1-2-7(14)13-6(4-20)9(17)12-3-8(15)16/h5-6,20H,1-4,11H2,(H,12,17)(H,13,14)(H,15,16)(H,18,19)
Instrument: waters xevo g2 TOF
Instrument type: ESI-TOF
Ms type: MS2
Ion mode: POSITIVE
Ionization: ESI
Collision energy: 6.0000000
Column name: Acquity CSHC18
Retention time: 0.595 min
Base peak: 308.09181
Precursor m/z: 308.09181
Precursor type: [M+H]+
m/z	relative intensity
76.0222	1
76.0225	1
84.0454	1
116.0172	6
130.0088	25
130.0089	22
130.0504	1
130.0506	1
135.9929	17
138.9906	45
138.9907	27
138.9908	35
142.0325	1
144.0123	1
162.0226	195
162.0227	207
173.9795	17
173.9803	19
179.0493	499
179.0496	257
180.0515	30
181.0474	24
215.0486	12
233.0594	164
233.0599	219
245.0603	36
245.0611	11
290.0802	16
291.0643	22
291.0659	32
308.0914	832
308.0916	999
309.0944	128
310.0908	72
310.0914	37
