Mass spectrum: Glutamine; LC-ESI-QTOF; MS2; CE: 10;  [M-H]-
Name: Glutamine
Class: NA
Formula: C5H10N2O3
Exact mass: 146.0691
SMILES: C(CC(=O)N)C(C(=O)O)N
InChI: InChI=1S/C5H10N2O3/c6-3(5(9)10)1-2-4(7)8/h3H,1-2,6H2,(H2,7,8)(H,9,10)
Instrument: impact II
Instrument type: LC-ESI-QTOF
Ms type: MS2
Ion mode: NEGATIVE
Ionization: ESI
Collision energy: 10
Column name: Acquity CSHC18
Retention time: 1.792 min
Base peak: 145.0618
Precursor m/z: 145.0618
Precursor type: [M-H]-
m/z	relative intensity
109.0405	771
127.0507	999
145.0616	802
