Mass spectrum: 3-METHOXYTYROSINE; LC-ESI-QTOF; MS2; CE: 40;  [M+H]+
Name: 3-METHOXYTYROSINE
Class: NA
Formula: C10H13NO4
Exact mass: 211.08446
SMILES: COC1=CC(CC(N)C(O)=O)=CC=C1O
InChI: InChI=1S/C10H13NO4/c1-15-9-5-6(2-3-8(9)12)4-7(11)10(13)14/h2-3,5,7,12H,4,11H2,1H3,(H,13,14)
Instrument: Agilent 6530Â Q-TOF LC/MS
Instrument type: LC-ESI-QTOF
Ms type: MS2
Ion mode: POSITIVE
Ionization: ESI
Collision energy: 40
Column name: NA
Retention time: 0.200 min
Base peak: 212.08727
Precursor m/z: 212.08727
Precursor type: [M+H]+
Precursor intensity: 24.5
m/z	relative intensity
41.0399	26
42.0334	27
45.0335	27
51.0343	30
53.0414	33
55.0256	34
63.0303	35
65.0714	37
66.0482	37
67.051	39
69.0266	39
70.0305	40
77.0668	41
78.0662	42
79.0848	43
80.0536	43
81.0515	43
89.0568	44
91.0746	46
93.0597	49
94.0659	51
95.0635	52
103.062	56
104.0564	58
105.0467	60
106.0831	63
107.0682	65
109.0371	75
110.0478	101
116.0586	104
117.0455	133
118.0584	140
121.0884	161
122.0552	166
123.0482	196
124.0611	209
125.0557	227
132.0469	293
134.0798	342
135.0671	439
137.0626	476
149.0666	999
