Mass spectrum: ADP ribose; LC-ESI-QTOF; MS2; CE: 30;  [M-H]-
Name: ADP ribose
Class: Purine nucleotide sugars
Formula: C15H23N5O14P2
Exact mass: 559.0717
SMILES: NC1=C2N=CN(C3OC(COP(O)(=O)OP(O)(=O)OCC4OC(O)C(O)C4O)C(O)C3O)C2=NC=N1
InChI: InChI=1S/C15H23N5O14P2/c16-12-7-13(18-3-17-12)20(4-19-7)14-10(23)8(21)5(32-14)1-30-35(26,27)34-36(28,29)31-2-6-9(22)11(24)15(25)33-6/h3-6,8-11,14-15,21-25H,1-2H2,(H,26,27)(H,28,29)(H2,16,17,18)
Instrument: impact II
Instrument type: LC-ESI-QTOF
Ms type: MS2
Ion mode: NEGATIVE
Ionization: ESI
Collision energy: 30
Column name: Acquity CSHC18
Retention time: 1.721 min
Base peak: 558.0538
Precursor m/z: 558.0538
Precursor type: [M-H]-
m/z	relative intensity
78.9592	257
96.9698	241
158.9245	197
210.9994	165
272.9536	122
290.964	115
346.0508	999
347.0534	205
408.0041	159
558.0532	125
