Mass spectrum: 15(R)-15-methyl Prostaglandin E2; ESI-TOF; MS2; CE: 6.0000000;  [M+H]+
Name: 15(R)-15-methyl Prostaglandin E2
Class: NA
Formula: C21H34O5
Exact mass: 366.24062
SMILES: O=C1[C@H](C/C=C\CCCC(O)=O)[C@@H](/C=C/[C@](C)(O)CCCCC)[C@H](O)C1
InChI: InChI=1S/C21H34O5/c1-3-4-9-13-21(2,26)14-12-17-16(18(22)15-19(17)23)10-7-5-6-8-11-20(24)25/h5,7,12,14,16-17,19,23,26H,3-4,6,8-11,13,15H2,1-2H3,(H,24,25)/b7-5-,14-12+/t16-,17-,19-,21-/m1/s1
Instrument: waters xevo g2 TOF
Instrument type: ESI-TOF
Ms type: MS2
Ion mode: POSITIVE
Ionization: ESI
Collision energy: 6.0000000
Column name: Acquity CSHC18
Retention time: 3.677 min
Base peak: 367.24862
Precursor m/z: 367.24862
Precursor type: [M+H]+
m/z	relative intensity
81.0704	5
137.1328	7
165.128	29
166.1331	3
167.0892	23
173.0962	9
189.0943	14
193.0922	1
205.1406	2
207.1191	21
215.1235	13
217.1408	7
219.102	45
221.1249	4
229.1592	45
230.1626	5
233.116	9
235.1339	12
237.1119	17
241.195	24
243.2091	12
251.0585	7
253.1956	8
257.1523	4
259.206	27
267.2096	16
269.1891	6
271.2043	23
277.2048	40
285.2232	25
286.2246	5
289.215	24
295.2054	172
296.2089	26
305.2093	48
306.2118	5
313.2165	954
314.2199	220
315.2209	24
317.1052	3
331.2268	999
332.2279	242
333.2329	29
349.2405	420
350.244	105
368.721	87
