Mass spectrum: OPHTHALMATE; LC-ESI-QFT; MS2; CE: 30eV;  [M+H]+
Name: OPHTHALMATE
Class: NA
Formula: C11H19N3O6
Exact mass: 289.12739
SMILES: CC[C@H](NC(=O)CC[C@H](N)C(O)=O)C(=O)NCC(O)=O
InChI: InChI=1S/C11H19N3O6/c1-2-7(10(18)13-5-9(16)17)14-8(15)4-3-6(12)11(19)20/h6-7H,2-5,12H2,1H3,(H,13,18)(H,14,15)(H,16,17)(H,19,20)/t6-,7-/m0/s1
Instrument: Q-Exactive Orbitrap, Thermo Scientfic; Ultimate 3000 HPLC, Thermo Scientfic
Instrument type: LC-ESI-QFT
Ms type: MS2
Ion mode: POSITIVE
Ionization: ESI
Collision energy: 30eV
Column name: Acquity CSHC18
Retention time: 0.806 min
Base peak: 290.1347
Precursor m/z: 290.1347
Precursor type: [M+H]+
Precursor intensity: 183
m/z	relative intensity
51.353	1
56.0503	4
59.0693	32
59.7864	2
60.1206	1
61.734	1
70.1997	1
74.0244	2
76.0401	9
83.9337	2
84.0452	203
84.5451	2
88.9046	2
90.4082	2
93.9679	2
102.0195	1
102.0557	3
111.4654	1
118.4949	1
124.0763	23
125.6746	2
130.0504	191
133.0975	18
133.3856	2
142.0504	21
143.0819	2
152.071	19
152.46	2
161.0925	999
161.2196	2
162.0901	2
162.096	20
169.0975	34
170.0816	72
177.7735	2
187.1084	2
197.0927	98
198.0766	2
215.1033	365
216.107	19
227.1032	117
228.1061	4
247.7796	2
272.1251	8
273.1087	118
274.1124	3
290.1353	26
308.9015	3
