Mass spectrum: L-Tryptophan; LC-ESI-QTOF; MS2; CE: 35.00;  [M+H]+
Name: L-Tryptophan
Class: NA
Formula: C11H12N2O2
Exact mass: 204.0899
SMILES: C1=CC=C2C(=C1)C(=CN2)CC(C(=O)O)N
InChI: InChI=1S/C11H12N2O2/c12-9(11(14)15)5-7-6-13-10-4-2-1-3-8(7)10/h1-4,6,9,13H,5,12H2,(H,14,15)
Instrument: Bruker MicrOTOF-Q
Instrument type: LC-ESI-QTOF
Ms type: MS2
Ion mode: POSITIVE
Ionization: ESI
Collision energy: 35.00
Column name: Acquity CSHC18
Retention time: NA
Base peak: 205.0978
Precursor m/z: 205.0978
Precursor type: [M+H]+
m/z	relative intensity
99.6483	8
113.0369	17
113.039	20
114.0399	18
114.0444	18
114.9603	12
115.0533	999
116.0561	230
117.0566	841
118.0634	440
119.0675	50
126.0407	13
126.0503	22
126.065	25
127.0533	84
128.0507	136
129.0538	34
129.9805	9
130.0644	708
130.2728	7
131.0695	110
132.0789	166
133.0818	24
134.0785	10
140.0488	127
141.0559	119
142.0646	704
142.9729	13
143.0717	987
143.3639	7
144.0769	167
145.0758	18
145.0772	34
146.0591	37
156.0698	11
156.0725	10
157.0758	24
158.0838	31
159.0846	8
159.0912	23
159.0988	10
169.0481	7
170.0611	33
171.06	10
171.0655	11
216.0744	19
242.0879	9
242.0882	7
256.095	8
