Mass spectrum: Tetrachlorobisphenol A; LC-ESI-ITFT; MS2; CE: 30;  [M-H]-
Name: Tetrachlorobisphenol A
Class: NA
Formula: C15H12Cl4O2
Exact mass: 363.95914
SMILES: CC(C)(C1=CC(=C(C(=C1)Cl)O)Cl)C2=CC(=C(C(=C2)Cl)O)Cl
InChI: InChI=1S/C15H12Cl4O2/c1-15(2,7-3-9(16)13(20)10(17)4-7)8-5-11(18)14(21)12(19)6-8/h3-6,20-21H,1-2H3
Instrument: Thermo Scientific Q-Exactive Focus
Instrument type: LC-ESI-ITFT
Ms type: MS2
Ion mode: NEGATIVE
Ionization: ESI
Collision energy: 30
Column name: Acquity CSHC18
Retention time: 0.925 min
Base peak: 362.95187
Precursor m/z: 362.95187
Precursor type: [M-H]-
m/z	relative intensity
200.9872	987
223.9796	141
247.9799	155
251.9748	360
262.9671	144
286.9438	206
298.9437	143
299.9516	181
311.9516	462
362.9518	999
