Mass spectrum: quinidine; LC-ESI-QFT; MS2; CE: 15,30,45 (NCE);  [M+H]+
Name: quinidine
Class: NA
Formula: C20H24N2O2
Exact mass: 324.1838
SMILES: COC1=CC2=C(C=CN=C2C=C1)C(O)C1CC2CCN1CC2C=C
InChI: InChI=1S/C20H24N2O2/c1-3-13-12-22-9-7-14(13)10-19(22)20(23)16-6-8-21-18-5-4-15(24-2)11-17(16)18/h3-6,8,11,13-14,19-20,23H,1,7,9-10,12H2,2H3
Instrument: QE Focus, Thermo Scientfic; UPLC I-Class, Waters
Instrument type: LC-ESI-QFT
Ms type: MS2
Ion mode: POSITIVE
Ionization: ESI
Collision energy: 15,30,45 (NCE)
Column name: Acquity CSHC18
Retention time: 1.086 min
Base peak: 325.1911
Precursor m/z: 325.1911
Precursor type: [M+H]+
Precursor intensity: 1465309000
m/z	relative intensity
61.7946	3
67.0551	5
79.0548	22
80.0501	4
81.0706	46
82.0657	6
88.637	3
93.071	3
102.3984	3
105.9704	4
108.0813	7
110.0969	17
128.2033	3
134.0968	6
136.1116	4
137.1201	4
159.9132	3
160.0757	59
166.1226	22
172.0755	25
173.0834	5
174.0914	7
184.0758	53
186.0914	19
198.0915	23
210.0926	5
226.1235	4
233.2047	4
253.1328	35
264.138	18
279.1483	8
307.1806	89
325.191	999
