Mass spectrum: 3',7-Dimethylquercetin; LC-ESI-QTOF; MS2; CE: 50eV;  [M+H]+
Name: 3',7-Dimethylquercetin
Class: Flavonol
Formula: C17H14O7
Exact mass: 330.0740
SMILES: COC1=CC(=C2C(=C1)OC(=C(C2=O)O)C3=CC(=C(C=C3)O)OC)O
InChI: InChI=1S/C17H14O7/c1-22-9-6-11(19)14-13(7-9)24-17(16(21)15(14)20)8-3-4-10(18)12(5-8)23-2/h3-7,18-19,21H,1-2H3
Instrument: TIMS-TOF Pro, Bruker Daltonik; Elute UHPLC System, Bruker Daltonik
Instrument type: LC-ESI-QTOF
Ms type: MS2
Ion mode: POSITIVE
Ionization: ESI
Collision energy: 50eV
Column name: Acquity CSHC18
Retention time: 8.513 min
Base peak: 331.0786
Precursor m/z: 331.0786
Precursor type: [M+H]+
Precursor intensity: 904802.1
m/z	relative intensity
76.028	2
108.0232	2
110.0344	7
112.6561	2
121.12	3
123.0008	1
127.0545	1
137.0216	27
139.0553	1
149.0222	2
150.033	11
155.0474	2
166.0259	1
167.0333	4
171.0455	4
180.0336	1
189.0554	1
191.6559	2
199.0379	8
200.0442	4
207.0178	2
213.0559	4
217.0508	2
228.0394	6
231.0297	3
242.0388	2
256.4908	1
267.3466	1
270.054	5
271.992	3
273.0056	5
273.0397	22
274.0395	7
274.4389	2
287.0496	5
288.0612	10
299.0294	1
308.7984	3
315.0472	29
316.0026	5
316.0562	271
317.0583	26
319.1183	2
321.9533	1
327.474	1
331.0295	8
331.0786	999
