Mass spectrum: 3,4,5-Trihydroxybenzoic acid; LC-ESI-QTOF; MS2; CE: 15.00;  [M+H]+
Name: 3,4,5-Trihydroxybenzoic acid
Class: NA
Formula: C7H6O5
Exact mass: 170.0215
SMILES: C1=C(C=C(C(=C1O)O)O)C(=O)O
InChI: InChI=1S/C7H6O5/c8-4-1-3(7(11)12)2-5(9)6(4)10/h1-2,8-10H,(H,11,12)
Instrument: Bruker MicrOTOF-Q
Instrument type: LC-ESI-QTOF
Ms type: MS2
Ion mode: POSITIVE
Ionization: ESI
Collision energy: 15.00
Column name: Acquity CSHC18
Retention time: NA
Base peak: 171.0288
Precursor m/z: 171.0288
Precursor type: [M+H]+
m/z	relative intensity
107.0133	101
109.0281	10
109.0287	30
125.0236	507
126.0279	8
126.0289	27
127.0384	116
128.0415	4
135.0079	158
143.0366	7
153.0187	999
154.0215	69
171.0278	7
