Mass spectrum: 1-palmitoyl-2-hydroxy-sn-glycero-3-phosphoethanolamine; ESI-TOF; MS2; CE: 6.0000000;  [M+H]+
Name: 1-palmitoyl-2-hydroxy-sn-glycero-3-phosphoethanolamine
Class: NA
Formula: C21H44NO7P
Exact mass: 453.28554
SMILES: [H]OC([H])(C([H])([H])OC(=O)C([H])([H])C([H])([H])C([H])([H])C([H])([H])C([H])([H])C([H])([H])C([H])([H])C([H])([H])C([H])([H])C([H])([H])C([H])([H])C([H])([H])C([H])([H])C([H])([H])C([H])([H])[H])C([H])([H])OP(=O)([O-])OC([H])([H])C([H])([H])[N+]([H])([H])[H]
InChI: InChI=1S/C21H44NO7P/c1-2-3-4-5-6-7-8-9-10-11-12-13-14-15-21(24)27-18-20(23)19-29-30(25,26)28-17-16-22/h20,23H,2-19,22H2,1H3,(H,25,26)
Instrument: waters xevo g2 TOF
Instrument type: ESI-TOF
Ms type: MS2
Ion mode: POSITIVE
Ionization: ESI
Collision energy: 6.0000000
Column name: Acquity CSHC18
Retention time: 6.293 min
Base peak: 454.29354
Precursor m/z: 454.29354
Precursor type: [M+H]+
m/z	relative intensity
192.9572	2
198.0533	5
216.0637	10
246.624	4
265.5975	4
271.9834	4
282.2794	15
283.2851	2
313.2742	285
314.2778	61
315.2804	7
393.241	46
394.2444	8
431.1871	81
432.191	16
436.282	185
437.2859	91
438.2883	14
442.74	13
443.2429	4
449.199	33
450.2054	7
451.7462	9
452.2466	5
454.2942	999
455.296	235
