Mass spectrum: trans-Ferulic acid; ESI-TOF; MS2; CE: 0.6458333;  [M+H]+
Name: trans-Ferulic acid
Class: NA
Formula: C10H10O4
Exact mass: 194.05791
SMILES: COC1=C(O)C=CC(C=CC(O)=O)=C1
InChI: InChI=1S/C10H10O4/c1-14-9-6-7(2-4-8(9)11)3-5-10(12)13/h2-6,11H,1H3,(H,12,13)
Instrument: waters xevo g2 TOF
Instrument type: ESI-TOF
Ms type: MS2
Ion mode: POSITIVE
Ionization: ESI
Collision energy: 0.6458333
Column name: Acquity CSHC18
Retention time: 2.241 min
Base peak: 195.06591
Precursor m/z: 195.06591
Precursor type: [M+H]+
m/z	relative intensity
63.0239	6
77.0395	39
78.0473	74
89.0394	737
90.0427	66
91.0549	63
92.0583	3
93.0707	6
95.0071	2
103.0549	35
104.0588	2
105.0344	33
106.0395	91
107.0479	16
115.0549	21
117.0341	999
118.0378	101
121.0658	10
123.0451	5
131.0667	10
132.0565	5
133.0291	16
134.0369	220
135.0096	16
137.0605	27
143.0604	2
145.029	677
146.0327	81
149.0603	282
150.0649	16
151.0575	21
153.0554	3
159.0278	3
160.052	37
161.0406	10
162.032	38
163.0394	13
167.0723	1
173.9981	2
175.0291	19
176.0783	2
177.1655	65
178.1135	7
179.0645	3
188.9935	18
190.0246	1
194.0299	1
195.0658	4
201.0556	29
202.0603	12
203.9887	8
205.029	17
211.0273	3
217.0007	1
219.0704	8
222.0334	13
233.0126	132
234.0163	14
235.0748	26
236.0471	3
237.0509	25
238.0942	6
250.0281	7
251.0241	9
253.0323	4
254.0946	2
256.0752	6
261.0553	1
262.0648	1
263.0702	35
264.077	15
265.0865	93
266.0889	13
267.134	1
273.0423	3
277.0136	2
278.0609	4
280.0392	6
281.0466	13
282.0876	11
283.1062	8
288.0296	2
289.0527	1
291.0315	11
292.042	6
293.0298	8
295.042	11
297.1122	16
298.1184	7
299.1283	1
303.0521	1
307.0902	21
308.0698	16
309.0467	8
310.0819	5
311.0917	2
313.1078	51
314.1166	5
323.0923	45
325.1068	16
337.0725	7
340.0948	13
341.1026	61
342.1085	32
351.0874	9
364.0912	8
366.0637	1
367.0802	1
375.0854	2
381.0644	17
382.0685	3
387.1056	1
393.097	3
394.0948	1
395.1071	3
396.0716	1
409.0445	25
410.0488	4
413.0871	3
414.0961	1
424.0255	11
425.0788	16
427.0731	28
428.1068	9
431.07	1
438.0419	1
442.0772	82
443.0401	46
444.0824	4
449.1123	19
465.0852	6
467.0852	2
531.1341	2
557.1424	7
558.1452	2
575.1259	8
589.1648	6
590.1288	2
599.1335	1
599.636	1
601.133	2
605.1457	1
613.3457	2
619.1114	14
620.1153	5
621.1247	2
634.0862	1
767.1671	4
811.1534	2
812.1613	1
