Mass spectrum: N6-(DELTA2-ISOPENTENYL)-ADENINE; LC-ESI-QTOF; MS2; CE: 40;  [M+H]+
Name: N6-(DELTA2-ISOPENTENYL)-ADENINE
Class: NA
Formula: C10H13N5
Exact mass: 203.11710
SMILES: CC(=CCNC1=NC=NC2=C1NC=N2)C
InChI: InChI=1S/C10H13N5/c1-7(2)3-4-11-9-8-10(13-5-12-8)15-6-14-9/h3,5-6H,4H2,1-2H3,(H2,11,12,13,14,15)
Instrument: Agilent 6530Â Q-TOF LC/MS
Instrument type: LC-ESI-QTOF
Ms type: MS2
Ion mode: POSITIVE
Ionization: ESI
Collision energy: 40
Column name: NA
Retention time: 0.200 min
Base peak: 204.12384
Precursor m/z: 204.12384
Precursor type: [M+H]+
Precursor intensity: 200.5
m/z	relative intensity
41.0305	346
41.0341	651
41.0378	744
41.0415	678
41.0452	533
41.0488	388
41.0525	282
41.0562	218
41.0598	173
41.0635	126
65.0109	118
67.0178	194
67.0225	407
67.0271	439
67.0318	366
67.0365	301
67.0412	248
67.0459	187
67.0506	147
67.0553	118
69.0599	237
69.0647	375
69.0694	377
69.0742	312
69.079	244
69.0837	180
69.0885	125
79.041	120
90.8936	118
90.8991	141
90.9045	125
92.0116	160
92.0172	253
92.0226	229
92.0281	173
92.0336	132
119.0184	324
119.0247	780
119.031	999
119.0372	912
119.0435	746
119.0497	588
119.056	434
119.0622	322
119.0685	270
119.0747	216
119.081	152
