Mass spectrum: PTERIN; LC-ESI-QTOF; MS2; CE: 40;  [M-H]-
Name: PTERIN
Class: NA
Formula: C6H5N5O
Exact mass: 163.04941
SMILES: NC1=NC2=NC=CN=C2C(=O)N1
InChI: InChI=1S/C6H5N5O/c7-6-10-4-3(5(12)11-6)8-1-2-9-4/h1-2H,(H3,7,9,10,11,12)
Instrument: Agilent 6530Â Q-TOF LC/MS
Instrument type: LC-ESI-QTOF
Ms type: MS2
Ion mode: NEGATIVE
Ionization: ESI
Collision energy: 40
Column name: NA
Retention time: 0.200 min
Base peak: 162.04022
Precursor m/z: 162.04022
Precursor type: [M-H]-
Precursor intensity: 120
m/z	relative intensity
41.0219	284
50.0038	321
64.0098	403
65.0139	410
66.0095	471
119.0345	999
