Mass spectrum: Procyanidin B2; LC-ESI-QTOF; MS2; CE: 31.54;  [M-H]-
Name: Procyanidin B2
Class: NA
Formula: C30H26O12
Exact mass: 578.1424
SMILES: C1C(C(OC2=C1C(=CC(=C2C3C(C(OC4=CC(=CC(=C34)O)O)C5=CC(=C(C=C5)O)O)O)O)O)C6=CC(=C(C=C6)O)O)O
InChI: InChI=1S/C30H26O12/c31-13-7-20(37)24-23(8-13)41-29(12-2-4-16(33)19(36)6-12)27(40)26(24)25-21(38)10-17(34)14-9-22(39)28(42-30(14)25)11-1-3-15(32)18(35)5-11/h1-8,10,22,26-29,31-40H,9H2
Instrument: Bruker MicrOTOF-Q
Instrument type: LC-ESI-QTOF
Ms type: MS2
Ion mode: NEGATIVE
Ionization: ESI
Collision energy: 31.54
Column name: Acquity CSHC18
Retention time: NA
Base peak: 577.1351
Precursor m/z: 577.1351
Precursor type: [M-H]-
m/z	relative intensity
49.7527	10
55.5622	8
59.2734	9
62.0332	11
66.3405	8
70.0404	8
97.0293	17
107.0429	9
108.0176	13
109.0291	297
110.0382	24
119.2465	8
121.0285	73
122.0381	36
122.9973	152
124.8178	267
126.0278	283
127.0292	12
131.0484	13
132.021	16
133.0279	65
135.231	35
136.0237	9
136.9917	402
138.0861	31
139.0382	89
143.0519	11
145.0319	24
146.033	17
148.0443	8
149.0232	210
150.0296	68
151.0387	665
152.0403	62
153.0472	14
159.0441	53
160.1301	20
160.828	717
161.9621	104
162.9477	83
164.011	186
164.957	229
166.1849	28
167.0336	134
172.0522	10
173.0456	14
174.0361	20
175.0382	498
176.0442	68
177.0194	336
178.0291	65
178.9983	262
180.0384	68
181.0477	29
183.0416	22
184.0493	9
185.0595	74
186.0015	28
187.0386	687
188.0458	338
189.0499	119
190.0267	45
191.0344	75
192.0374	14
193.047	160
194.0534	8
195.0429	12
196.044	11
197.0609	26
198.032	14
199.0665	69
200.0426	28
200.5191	8
201.05	273
202.0603	205
202.9464	641
203.4851	9
204.5133	403
205.5892	9
206.1578	111
207.029	77
208.0383	13
209.0565	20
211.0356	83
212.0455	98
213.0521	130
214.0331	42
215.0367	336
216.0366	83
217.0529	424
218.0465	44
219.0466	164
219.48	8
220.0391	39
221.0366	222
222.0833	57
223.0753	22
225.0554	104
226.0574	19
227.0666	497
227.9815	45
228.9454	239
230.0552	298
231.0409	301
232.0342	63
233.0471	39
234.0484	9
235.0655	16
237.0574	38
238.0601	10
239.0438	32
240.0449	22
241.0522	94
242.0501	46
243.1861	257
244.0447	40
245.602	684
246.8731	143
248.0637	66
249.0595	25
252.0472	14
253.0518	195
254.0588	46
254.9441	504
255.9692	465
256.9728	259
258.0507	105
259.0581	188
260.0008	21
261.0446	52
262.0581	16
263.0847	12
265.056	25
266.0606	17
267.0632	59
268.0666	24
269.0453	450
270.0457	98
271.061	402
272.0655	93
273.0391	999
274.0433	201
275.0497	106
276.0623	13
277.078	40
278.0743	12
279.0586	39
279.9932	19
281.0434	918
282.0422	179
283.0255	433
284.0313	243
284.9657	464
286.0448	183
286.6136	9
287.0533	212
289.24	403
292.0749	28
293.0664	14
294.0752	10
295.0962	66
296.0783	15
296.9398	159
298.0499	151
299.0538	258
300.0559	52
301.0689	104
302.0652	20
303.06	25
307.06	18
308.0527	11
309.0626	33
310.0473	28
311.0542	57
312.0603	18
313.095	43
315.0846	357
316.0896	89
317.0666	18
319.0786	15
320.068	14
321.0724	94
322.075	30
323.0661	23
324.0527	23
325.0774	16
327.0756	66
328.0538	116
329.0628	248
330.0646	25
331.0799	54
332.0785	11
333.0806	9
335.0737	14
337.1037	30
338.0741	12
338.9992	943
340.0889	394
341.0717	190
342.0679	35
343.0575	10
345.0716	19
348.0735	10
353.0628	17
357.0927	251
358.0968	54
359.102	8
362.0815	10
363.0848	160
364.0866	40
365.0921	35
366.1012	12
367.0778	35
369.0907	17
370.0912	12
371.0929	12
375.0638	12
379.0876	13
381.154	174
382.0971	99
383.0852	73
384.0994	25
387.0564	8
389.0666	140
390.0679	30
391.085	19
393.0844	15
405.0913	15
405.6701	11
407.7292	500
410.0821	43
415.0635	9
419.0731	21
420.0871	9
425.0829	107
426.0865	36
433.0856	22
437.076	11
449.1037	9
451.1053	39
452.1048	14
