Mass spectrum: taxifolin; LC-ESI-QTOF; MS2; CE: 20-40eV;  [M+H]+
Name: taxifolin
Class: flavonoid
Formula: C15H12O7
Exact mass: 304.0583
SMILES: C1=CC(=C(C=C1C2(C(C(C3=C(C=C(C=C3O2)O)O)=O)(O)[H])[H])O)O
InChI: InChI=1S/C15H12O7/c16-7-4-10(19)12-11(5-7)22-15(14(21)13(12)20)6-1-2-8(17)9(18)3-6/h1-5,14-19,21H
Instrument: Impact II, Bruker; Dionex 3000, Thermo Scientific
Instrument type: LC-ESI-QTOF
Ms type: MS2
Ion mode: POSITIVE
Ionization: ESI
Collision energy: 20-40eV
Column name: Acquity CSHC18
Retention time: 4.928 min
Base peak: 305.0657
Precursor m/z: 305.0657
Precursor type: [M+H]+
Precursor intensity: 23754.88
m/z	relative intensity
135.0605	920
167.0412	999
