Mass spectrum: Prostaglandin F2-alpha 1,11-lactone; ESI-TOF; MS2; CE: 6.0000000;  [M+H]+
Name: Prostaglandin F2-alpha 1,11-lactone
Class: NA
Formula: C20H32O4
Exact mass: 336.23006
SMILES: O[C@H]1C[C@@H]2[C@H](/C=C/[C@@H](O)CCCCC)[C@H]1C/C=C\CCCC(O2)=O
InChI: InChI=1S/C20H32O4/c1-2-3-6-9-15(21)12-13-17-16-10-7-4-5-8-11-20(23)24-19(17)14-18(16)22/h4,7,12-13,15-19,21-22H,2-3,5-6,8-11,14H2,1H3/b7-4-,13-12+/t15-,16+,17+,18-,19+/m0/s1
Instrument: waters xevo g2 TOF
Instrument type: ESI-TOF
Ms type: MS2
Ion mode: POSITIVE
Ionization: ESI
Collision energy: 6.0000000
Column name: Acquity CSHC18
Retention time: 3.951 min
Base peak: 337.23806
Precursor m/z: 337.23806
Precursor type: [M+H]+
m/z	relative intensity
93.0683	1
95.0855	1
131.0865	7
133.1013	1
147.0985	2
149.1323	3
159.1182	1
169.1002	2
173.1341	6
179.0902	19
179.5945	5
185.0968	30
186.0997	6
187.1122	28
191.1061	2
199.1113	20
203.1071	9
205.1233	4
207.1351	2
213.1278	2
217.1226	20
218.1285	2
219.1356	3
227.1426	1
231.1371	8
239.1629	7
241.1956	8
255.2118	12
257.1904	62
258.1914	8
265.1955	25
273.1836	2
275.2005	323
276.2045	52
277.2157	19
283.206	191
284.2108	35
291.2324	10
301.2165	999
302.2199	234
303.2224	20
319.2267	392
320.2306	75
321.2284	6
332.3309	9
333.2408	8
336.2513	5
337.2343	4
338.1993	4
