Mass spectrum: Hippuric acid; LC-ESI-ITFT; MS2; CE: 100;  [M-H]-
Name: Hippuric acid
Class: Benzenoids; Benzene and substituted derivatives; Benzoic acids and derivatives
Formula: C9H9NO3
Exact mass: 179.05824
SMILES: OC(=O)CNC(=O)C1=CC=CC=C1
InChI: InChI=1S/C9H9NO3/c11-8(12)6-10-9(13)7-4-2-1-3-5-7/h1-5H,6H2,(H,10,13)(H,11,12)
Instrument: Thermo Scientific Q-Exactive Focus
Instrument type: LC-ESI-ITFT
Ms type: MS2
Ion mode: NEGATIVE
Ionization: ESI
Collision energy: 100
Column name: Acquity CSHC18
Retention time: 2.316 min
Base peak: 178.05096
Precursor m/z: 178.05096
Precursor type: [M-H]-
m/z	relative intensity
81.6434	877
83.6495	875
89.2683	999
99.0432	875
120.5655	930
179.6378	919
188.6588	998
190.6814	908
193.2223	997
195.9863	979
