Mass spectrum: Malondialdehyde; LC-ESI-ITFT; MS2; CE: 60;  [M-H]-
Name: Malondialdehyde
Class: Organic oxygen compounds; Organooxygen compounds; Carbonyl compounds
Formula: C3H4O2
Exact mass: 72.02113
SMILES: O=CCC=O
InChI: InChI=1S/C3H4O2/c4-2-1-3-5/h2-3H,1H2
Instrument: Thermo Scientific Q-Exactive Focus
Instrument type: LC-ESI-ITFT
Ms type: MS2
Ion mode: NEGATIVE
Ionization: ESI
Collision energy: 60
Column name: Acquity CSHC18
Retention time: 2.030 min
Base peak: 71.01385
Precursor m/z: 71.01385
Precursor type: [M-H]-
m/z	relative intensity
50.3019	911
58.1531	810
61.2124	821
69.6958	948
70.3519	915
70.437	885
78.8318	818
79.8017	986
80.9874	875
83.5568	999
