Mass spectrum: Feruloyl galactaric acid; LC-ESI-ITFT; MS2; CE: 35eV;  [M-H]-
Name: Feruloyl galactaric acid
Class: Hydroxycinnamic ester
Formula: C16H18O11
Exact mass: 386.0849
SMILES: COC1=C(C=CC(=C1)C=CC(=O)OC(C(C(C(C(=O)O)O)O)O)C(=O)O)O
InChI: InChI=1S/C16H18O11/c1-26-9-6-7(2-4-8(9)17)3-5-10(18)27-14(16(24)25)12(20)11(19)13(21)15(22)23/h2-6,11-14,17,19-21H,1H3,(H,22,23)(H,24,25)
Instrument: LTQ Orbitrap XL, Thermo Scientfic; Dionex Ultimate 300
Instrument type: LC-ESI-ITFT
Ms type: MS2
Ion mode: NEGATIVE
Ionization: ESI
Collision energy: 35eV
Column name: Lichrospher C18 Column 250*4 5um, Interchim
Retention time: 23.173 min
Base peak: 385.0767
Precursor m/z: 385.0767
Precursor type: [M-H]-
m/z	relative intensity
191.0526	3
247.0489	4
249.1513	1
290.7741	1
385.1991	999
