Mass spectrum: C18:1 Ceramide (d18:1/18:1(9Z)); ESI-TOF; MS2; CE: 0.6458333;  [M+H]+
Name: C18:1 Ceramide (d18:1/18:1(9Z))
Class: NA
Formula: C36H69NO3
Exact mass: 563.52775
SMILES: [H]OC([H])([H])C([H])(N([H])C(=O)C([H])([H])C([H])([H])C([H])([H])C([H])([H])C([H])([H])C([H])([H])C([H])([H])C([H])=C([H])C([H])([H])C([H])([H])C([H])([H])C([H])([H])C([H])([H])C([H])([H])C([H])([H])C([H])([H])[H])C([H])(O[H])C([H])=C([H])C([H])([H])C([H])([H])C([H])([H])C([H])([H])C([H])([H])C([H])([H])C([H])([H])C([H])([H])C([H])([H])C([H])([H])C([H])([H])C([H])([H])C([H])([H])[H]
InChI: InChI=1S/C36H69NO3/c1-3-5-7-9-11-13-15-17-18-20-22-24-26-28-30-32-36(40)37-34(33-38)35(39)31-29-27-25-23-21-19-16-14-12-10-8-6-4-2/h17-18,29,31,34-35,38-39H,3-16,19-28,30,32-33H2,1-2H3,(H,37,40)
Instrument: waters xevo g2 TOF
Instrument type: ESI-TOF
Ms type: MS2
Ion mode: POSITIVE
Ionization: ESI
Collision energy: 0.6458333
Column name: Acquity CSHC18
Retention time: 10.962 min
Base peak: 564.53575
Precursor m/z: 564.53575
Precursor type: [M+H]+
m/z	relative intensity
79.0548	5
109.1005	4
126.9532	6
143.0165	9
211.2041	8
218.9777	4
247.2414	13
252.2693	202
253.2715	29
264.271	999
264.7239	7
265.2713	222
266.2752	46
270.7261	3
277.7347	35
278.2361	13
282.2794	293
283.2826	57
283.7349	16
284.2359	7
302.7522	4
320.2248	9
336.1976	5
346.2418	30
362.2259	12
363.2197	4
403.1465	11
516.5155	43
517.518	15
520.5095	2
528.5137	115
529.518	49
530.5203	7
546.5249	983
547.5283	415
548.5359	52
549.5388	9
558.948	66
559.45	48
559.953	20
560.4849	29
561.5053	18
563.3473	6
564.5353	179
565.5382	74
