Mass spectrum: INOSINE; LC-ESI-QFT; MS2; CE: 30eV;  [M-H]-
Name: INOSINE
Class: NA
Formula: C10H12N4O5
Exact mass: 268.08077
SMILES: OC[C@H]1O[C@H]([C@H](O)[C@@H]1O)N1C=NC2=C1N=CNC2=O
InChI: InChI=1S/C10H12N4O5/c15-1-4-6(16)7(17)10(19-4)14-3-13-5-8(14)11-2-12-9(5)18/h2-4,6-7,10,15-17H,1H2,(H,11,12,18)/t4-,6-,7-,10-/m1/s1
Instrument: Q-Exactive Orbitrap, Thermo Scientfic; Ultimate 3000 HPLC, Thermo Scientfic
Instrument type: LC-ESI-QFT
Ms type: MS2
Ion mode: NEGATIVE
Ionization: ESI
Collision energy: 30eV
Column name: Acquity CSHC18
Retention time: 1.128 min
Base peak: 267.0735
Precursor m/z: 267.0735
Precursor type: [M-H]-
Precursor intensity: 131
m/z	relative intensity
92.0238	4
108.0185	1
116.9814	1
126.0294	1
135.0297	999
136.0268	6
136.0331	23
139.7708	1
149.0454	1
177.0409	5
221.8416	4
244.7555	1
267.0734	361
268.0772	18
