Mass spectrum: Sphingosyl PE (d18:1); ESI-TOF; MS2; CE: 0.6458333;  [M+H]+
Name: Sphingosyl PE (d18:1)
Class: NA
Formula: C20H43N2O5P
Exact mass: 422.29096
SMILES: [H]OC([H])(C([H])=C([H])C([H])([H])C([H])([H])C([H])([H])C([H])([H])C([H])([H])C([H])([H])C([H])([H])C([H])([H])C([H])([H])C([H])([H])C([H])([H])C([H])([H])C([H])([H])[H])C([H])(N([H])[H])C([H])([H])OP(=O)([O-])OC([H])([H])C([H])([H])[N+]([H])([H])[H]
InChI: InChI=1S/C20H43N2O5P/c1-2-3-4-5-6-7-8-9-10-11-12-13-14-15-20(23)19(22)18-27-28(24,25)26-17-16-21/h14-15,19-20,23H,2-13,16-18,21-22H2,1H3,(H,24,25)
Instrument: waters xevo g2 TOF
Instrument type: ESI-TOF
Ms type: MS2
Ion mode: POSITIVE
Ionization: ESI
Collision energy: 0.6458333
Column name: Acquity CSHC18
Retention time: 4.297 min
Base peak: 423.29896
Precursor m/z: 423.29896
Precursor type: [M+H]+
m/z	relative intensity
67.055	3
79.0549	8
81.0703	10
82.0656	42
83.0859	3
86.0968	5
93.0703	23
95.0859	13
96.0813	24
104.1078	4
107.086	12
109.1015	5
121.1015	8
124.0166	5
125.0001	2
135.117	11
136.9315	17
142.0266	55
149.1331	4
184.074	117
185.0763	5
247.2417	15
248.2457	3
262.2525	15
264.2689	999
265.2721	219
266.2752	22
278.2828	2
282.2793	65
283.2831	14
290.2835	23
291.2879	3
307.3091	4
362.2455	22
376.2587	5
380.2568	13
381.2582	1
382.1823	11
383.1772	3
388.2609	34
389.2648	4
400.1927	15
401.1946	3
405.2877	18
406.2903	4
423.2987	61
424.3014	13
