Mass spectrum: 8-prenyl naringenin; LC-ESI-ITFT; MS2; CE: 0.3;  [M+H]+
Name: 8-prenyl naringenin
Class: flavanones
Formula: C20H20O5
Exact mass: 340.1311
SMILES: CC(=CCC1=C2C(=C(C=C1O)O)C(=O)CC(O2)C3=CC=C(C=C3)O)C
InChI: InChI=1S/C20H20O5/c1-11(2)3-8-14-15(22)9-16(23)19-17(24)10-18(25-20(14)19)12-4-6-13(21)7-5-12/h3-7,9,18,21-23H,8,10H2,1-2H3
Instrument: LTQ-Orbitrap XL hybrid mass spectrometer (Thermo Scientific)
Instrument type: LC-ESI-ITFT
Ms type: MS2
Ion mode: POSITIVE
Ionization: ESI
Collision energy: 0.3
Column name: Acquity CSHC18
Retention time: 11.993 min
Base peak: 341.1397
Precursor m/z: 341.1397
Precursor type: [M+H]+
Precursor intensity: 72781420
m/z	relative intensity
82.8008	1
86.7552	1
89.8499	1
101.886	1
105.1913	1
114.9323	1
118.8509	1
121.065	2
144.1804	1
147.0445	20
147.8956	1
148.8817	1
162.8694	1
163.7778	1
165.0189	108
177.9894	1
191.0347	21
196.1297	6
197.1104	1
203.3577	1
221.0819	43
247.5224	1
282.9963	1
284.7906	1
285.0538	6
285.0573	8
285.0607	5
285.0772	999
285.0903	4
285.0935	8
285.101	4
285.1045	5
286.0801	3
286.4786	3
287.1831	3
287.3304	7
287.3389	3
287.3455	2
