Mass spectrum: L-Tyrosine; LC-ESI-QTOF; MS2; CE: 35.00;  [M+H]+
Name: L-Tyrosine
Class: NA
Formula: C9H11NO3
Exact mass: 181.0739
SMILES: C1=CC(=CC=C1CC(C(=O)O)N)O
InChI: InChI=1S/C9H11NO3/c10-8(9(12)13)5-6-1-3-7(11)4-2-6/h1-4,8,11H,5,10H2,(H,12,13)
Instrument: Bruker MicrOTOF-Q
Instrument type: LC-ESI-QTOF
Ms type: MS2
Ion mode: POSITIVE
Ionization: ESI
Collision energy: 35.00
Column name: Acquity CSHC18
Retention time: NA
Base peak: 182.0821
Precursor m/z: 182.0821
Precursor type: [M+H]+
m/z	relative intensity
107.0479	371
117.0521	746
117.0547	626
118.0604	536
118.062	999
119.0481	726
120.0514	437
120.0527	439
134.0583	673
135.0656	225
136.0746	207
136.0789	358
