Mass spectrum: (-)-epigallocatechin; LC-ESI-ITFT; MS2; CE: 0.3;  [M+H]+
Name: (-)-epigallocatechin
Class: flavanols
Formula: C15H14O7
Exact mass: 306.0740
SMILES: C1C(C(OC2=CC(=CC(=C21)O)O)C3=CC(=C(C(=C3)O)O)O)O
InChI: InChI=1S/C15H14O7/c16-7-3-9(17)8-5-12(20)15(22-13(8)4-7)6-1-10(18)14(21)11(19)2-6/h1-4,12,15-21H,5H2
Instrument: LTQ-Orbitrap XL hybrid mass spectrometer (Thermo Scientific)
Instrument type: LC-ESI-ITFT
Ms type: MS2
Ion mode: POSITIVE
Ionization: ESI
Collision energy: 0.3
Column name: Acquity CSHC18
Retention time: 5.488 min
Base peak: 307.0825
Precursor m/z: 307.0825
Precursor type: [M+H]+
Precursor intensity: 7658360
m/z	relative intensity
71.67	5
73.3813	4
74.2967	3
77.7365	3
80.9422	4
81.6479	4
88.529	3
105.7808	3
120.0818	4
123.0443	17
133.029	5
133.4227	3
135.1648	3
139.0264	4
139.0275	5
139.0338	9
139.0347	4
139.0394	999
139.0421	5
139.0438	9
139.7556	7
151.0332	8
151.0395	681
153.055	31
156.8817	3
161.2524	6
161.2546	4
161.2584	8
163.0395	26
167.6548	5
169.0502	49
181.0503	57
196.1262	13
286.6746	8
286.682	5
289.0723	613
