Mass spectrum: 8-Methylsulfinyloctyl glucosinolate; LC-ESI-QTOF; MS2; CE: 29.41;  [M-H]-
Name: 8-Methylsulfinyloctyl glucosinolate
Class: NA
Formula: C16H31NO10S3
Exact mass: 493.1110
SMILES: CS(=O)CCCCCCCCC(=NOS(=O)(=O)O)SC1C(C(C(C(O1)CO)O)O)O
InChI: InChI=1S/C16H31NO10S3/c1-29(22)9-7-5-3-2-4-6-8-12(17-27-30(23,24)25)28-16-15(21)14(20)13(19)11(10-18)26-16/h11,13-16,18-21H,2-10H2,1H3,(H,23,24,25)
Instrument: Bruker MicrOTOF-Q
Instrument type: LC-ESI-QTOF
Ms type: MS2
Ion mode: NEGATIVE
Ionization: ESI
Collision energy: 29.41
Column name: Acquity CSHC18
Retention time: NA
Base peak: 492.1037
Precursor m/z: 492.1037
Precursor type: [M-H]-
m/z	relative intensity
44.8037	3
45.3136	3
46.2508	3
47.0249	3
48.3949	3
49.696	4
51.054	2
53.3749	2
54.9761	1
55.6272	2
58.0587	2
61.5041	3
63.158	2
64.8899	2
66.6829	4
67.4157	1
68.2397	3
68.9929	4
69.9567	1
70.7899	3
71.2079	3
72.1413	2
73.1435	4
73.9689	3
74.587	4
75.1545	3
77.3081	3
79.1508	9
80.7804	3
82.1617	4
84.3473	3
85.1699	2
87.266	3
87.9088	3
89.792	2
92.1705	2
93.3127	2
94.5684	2
96.2846	621
98.9138	41
100.9744	7
101.7667	5
102.8812	1
104.4502	2
105.8265	5
107.0152	1
109.9218	1
111.4599	2
111.9304	117
113.1958	12
113.9249	12
116.368	4
117.025	2
118.5467	2
119.0026	20
120.0403	24
121.0104	1
121.8885	4
122.9702	3
125.027	1
127.7875	83
128.5205	2
128.9816	46
129.9382	5
131.0818	7
133.4813	3
134.9682	5
135.5227	3
135.9708	200
137.069	4
137.7024	3
138.1665	2
138.9716	274
140.0417	4
140.9705	14
142.0173	2
143.0278	2
143.9877	9
145.2988	24
146.0552	11
147.0333	4
147.5427	2
148.7776	1
151.084	5
153.0753	2
153.8862	2
154.3906	1
155.948	3
157.1904	2
158.066	5
160.9802	8
162.0175	5
163.1206	26
164.0325	7
164.602	2
165.059	2
166.2355	2
166.9607	11
168.957	110
169.5242	2
169.9628	7
171.0298	25
172.0691	3
173.6984	2
174.1809	1
174.9568	1
177.0083	11
177.8279	34
179.0411	20
180.0355	6
182.9671	21
183.4546	1
183.9658	4
185.0047	3
186.0321	177
187.0983	27
188.296	6
190.0563	23
190.8216	4
192.0346	37
193.0037	6
194.2775	3
195.1466	118
195.9761	72
197.0308	15
199.0521	30
201.5211	3
202.0903	156
203.0981	7
204.0867	8
205.0552	162
205.8945	178
207.2398	71
208.0498	35
209.1546	3
210.0987	14
211.2125	5
214.3925	2
217.0749	20
218.186	52
219.0738	2
219.9541	23
223.0281	6
226.9807	44
228.0682	12
229.0231	7
231.2485	2
232.0654	127
234.4539	721
236.7416	21
237.7873	62
238.8305	28
240.1158	10
241.1517	120
242.0049	16
242.9978	10
248.0569	11
250.0924	492
250.6761	3
251.0941	67
252.1868	11
254.0927	18
255.0233	1
256.9844	13
257.729	3
259.1151	545
260.0169	181
261.0125	117
262.0162	12
264.0356	8
265.5657	2
266.053	729
266.5926	3
267.0545	105
267.864	45
269.0458	7
270.0831	3
273.7349	2
274.5108	4
275.1801	915
275.9934	142
276.9881	203
277.9871	13
281.0392	72
282.0509	103
283.0458	11
284.0229	71
285.0303	15
286.0212	12
290.9834	94
291.9817	7
296.0219	19
297.0682	2
298.2935	1
299.046	317
300.0503	49
301.0411	46
306.0935	7
314.0709	14
320.106	2
324.0806	3
331.0127	16
344.0093	78
345.0136	8
346.009	9
348.1466	52
358.0275	69
359.0284	16
372.0427	55
374.048	7
380.1253	1
386.0581	296
387.0578	38
388.0517	40
397.1238	16
398.119	4
399.1152	6
400.0759	122
401.0803	21
403.0746	4
412.1508	1
414.0967	7
426.5236	3
427.6667	1
428.2752	816
429.1082	304
430.1024	203
431.1069	29
432.1106	7
460.0755	50
461.0725	2
462.0726	7
477.0806	999
477.9643	103
479.0784	170
480.0778	42
492.1048	92
493.1028	15
494.1157	2
495.1098	5
