Mass spectrum: 17-phenyl trinor Prostaglandin E2; ESI-TOF; MS2; CE: 6.0000000;  [M+H]+
Name: 17-phenyl trinor Prostaglandin E2
Class: NA
Formula: C23H30O5
Exact mass: 386.20932
SMILES: O[C@H]1[C@H](/C=C/[C@@H](O)CCC2=CC=CC=C2)[C@@H](C/C=C\CCCC(O)=O)C(C1)=O
InChI: InChI=1S/C23H30O5/c24-18(13-12-17-8-4-3-5-9-17)14-15-20-19(21(25)16-22(20)26)10-6-1-2-7-11-23(27)28/h1,3-6,8-9,14-15,18-20,22,24,26H,2,7,10-13,16H2,(H,27,28)/b6-1-,15-14+/t18-,19+,20+,22+/m0/s1
Instrument: waters xevo g2 TOF
Instrument type: ESI-TOF
Ms type: MS2
Ion mode: POSITIVE
Ionization: ESI
Collision energy: 6.0000000
Column name: Acquity CSHC18
Retention time: 3.410 min
Base peak: 387.21732
Precursor m/z: 387.21732
Precursor type: [M+H]+
m/z	relative intensity
72.9383	3
91.0553	13
117.0714	100
118.0748	5
129.0711	11
131.0868	353
132.0899	33
133.0662	7
143.0869	18
149.0957	9
155.0862	4
163.1132	7
173.0814	5
175.1118	8
177.0915	7
180.1384	5
186.0987	3
187.1115	11
195.955	3
204.0807	77
211.1115	7
221.125	27
222.1229	3
229.1234	20
235.1654	43
245.1133	3
249.1278	40
261.1617	23
263.1785	17
279.1734	37
287.1775	24
290.2715	15
296.047	6
297.1833	45
305.1899	35
307.1707	47
315.1744	234
316.1792	46
317.1045	47
323.2035	39
325.1821	33
333.1845	823
334.1873	177
351.1959	999
352.1994	225
365.2137	14
369.2065	401
370.2095	90
371.2186	6
388.1809	155
388.6818	70
389.1656	23
