Mass spectrum: CMP; LC-ESI-QTOF; MS2; CE: 30;  [M+H]+
Name: CMP
Class: NA
Formula: C9H14N3O8P
Exact mass: 323.05185
SMILES: C1=CN(C(=O)N=C1N)C2C(C(C(O2)COP(=O)(O)O)O)O
InChI: InChI=1S/C9H14N3O8P/c10-5-1-2-12(9(15)11-5)8-7(14)6(13)4(20-8)3-19-21(16,17)18/h1-2,4,6-8,13-14H,3H2,(H2,10,11,15)(H2,16,17,18)
Instrument: impact II
Instrument type: LC-ESI-QTOF
Ms type: MS2
Ion mode: POSITIVE
Ionization: ESI
Collision energy: 30
Column name: Acquity CSHC18
Retention time: 1.787 min
Base peak: 324.05920
Precursor m/z: 324.05920
Precursor type: [M+H]+
m/z	relative intensity
69.034	2
94.0402	7
95.024	31
96.0276	2
97.0287	60
98.0318	3
112.0507	999
112.0638	79
112.0769	1
112.0981	4
112.1192	12
112.1267	14
112.1356	19
112.1515	7
112.1949	3
113.0539	53
114.0547	2
326.3791	2
