Mass spectrum: Ornithine; ESI-TOF; MS2; CE: 6.0000000;  [M+H]+
Name: Ornithine
Class: NA
Formula: C5H12N2O2
Exact mass: 132.08988
SMILES: NCCCC(N)C(O)=O
InChI: InChI=1S/C5H12N2O2/c6-3-1-2-4(7)5(8)9/h4H,1-3,6-7H2,(H,8,9)
Instrument: waters xevo g2 TOF
Instrument type: ESI-TOF
Ms type: MS2
Ion mode: POSITIVE
Ionization: ESI
Collision energy: 6.0000000
Column name: Acquity CSHC18
Retention time: 0.474 min
Base peak: 133.09788
Precursor m/z: 133.09788
Precursor type: [M+H]+
m/z	relative intensity
70.0658	38
115.0867	182
116.0709	999
117.0736	56
133.0973	222
134.1001	12
138.9897	4
142.0194	5
147.114	1
149.9542	4
151.9505	3
153.9527	1
172.9768	57
174.9557	4
178.1218	3
181.9865	1
188.0237	8
191.0232	1
217.0517	1
232.0142	4
256.0987	4
265.1881	11
300.0876	4
302.1889	1
319.1055	5
321.1055	2
450.1869	7
582.2826	2
