Mass spectrum: L-Asparagine; LC-ESI-ITFT; MS2; CE: 100;  [M-H]-
Name: L-Asparagine
Class: Organic acids and derivatives; Carboxylic acids and derivatives; Amino acids, peptides, and analogues
Formula: C4H8N2O3
Exact mass: 132.05349
SMILES: N[C@@H](CC(N)=O)C(O)=O
InChI: InChI=1S/C4H8N2O3/c5-2(4(8)9)1-3(6)7/h2H,1,5H2,(H2,6,7)(H,8,9)/t2-/m0/s1
Instrument: Thermo Scientific Q-Exactive Focus
Instrument type: LC-ESI-ITFT
Ms type: MS2
Ion mode: NEGATIVE
Ionization: ESI
Collision energy: 100
Column name: Acquity CSHC18
Retention time: 2.318 min
Base peak: 131.04622
Precursor m/z: 131.04622
Precursor type: [M-H]-
m/z	relative intensity
76.5324	912
83.1568	901
87.4114	927
99.5088	876
102.3842	957
122.8268	922
124.1828	909
134.9345	937
139.8937	999
141.6999	942
