Mass spectrum: 1,2-dilinoleoyl-sn-glycero-3-phosphocholine; ESI-TOF; MS2; CE: 6.0000000;  [M+H]+
Name: 1,2-dilinoleoyl-sn-glycero-3-phosphocholine
Class: NA
Formula: C44H80NO8P
Exact mass: 781.56216
SMILES: [H]C(=C([H])C([H])([H])C([H])([H])C([H])([H])C([H])([H])C([H])([H])[H])C([H])([H])C([H])=C([H])C([H])([H])C([H])([H])C([H])([H])C([H])([H])C([H])([H])C([H])([H])C([H])([H])C(=O)OC([H])([H])C([H])(OC(=O)C([H])([H])C([H])([H])C([H])([H])C([H])([H])C([H])([H])C([H])([H])C([H])([H])C([H])=C([H])C([H])([H])C([H])=C([H])C([H])([H])C([H])([H])C([H])([H])C([H])([H])C([H])([H])[H])C([H])([H])OP(=O)([O-])OC([H])([H])C([H])([H])[N+](C([H])([H])[H])(C([H])([H])[H])C([H])([H])[H]
InChI: InChI=1S/C44H80NO8P/c1-6-8-10-12-14-16-18-20-22-24-26-28-30-32-34-36-43(46)50-40-42(41-52-54(48,49)51-39-38-45(3,4)5)53-44(47)37-35-33-31-29-27-25-23-21-19-17-15-13-11-9-7-2/h14-17,20-23,42H,6-13,18-19,24-41H2,1-5H3
Instrument: waters xevo g2 TOF
Instrument type: ESI-TOF
Ms type: MS2
Ion mode: POSITIVE
Ionization: ESI
Collision energy: 6.0000000
Column name: Acquity CSHC18
Retention time: 10.735 min
Base peak: 782.57016
Precursor m/z: 782.57016
Precursor type: [M+H]+
m/z	relative intensity
129.9807	2
184.0744	14
287.1303	5
287.6332	2
303.2166	2
319.1955	102
320.1988	15
321.1988	4
333.1527	1
335.1681	50
336.1714	5
337.1693	10
338.1735	2
339.1622	2
401.1448	3
410.7625	76
411.2643	31
411.7656	11
412.2663	2
475.7424	7
476.2414	2
483.73	3
502.3297	351
503.3331	46
504.3353	9
562.8503	3
599.5036	13
600.5071	2
667.9594	2
668.4604	3
683.9596	3
684.4582	2
782.5672	951
783.5722	999
