Mass spectrum: Glucosan; ESI-TOF; MS2; CE: 6.0000000;  [M+H]+
Name: Glucosan
Class: NA
Formula: C6H10O5
Exact mass: 162.05282
SMILES: OC1C2COC(O2)C(O)C1O
InChI: InChI=1S/C6H10O5/c7-3-2-1-10-6(11-2)5(9)4(3)8/h2-9H,1H2
Instrument: waters xevo g2 TOF
Instrument type: ESI-TOF
Ms type: MS2
Ion mode: POSITIVE
Ionization: ESI
Collision energy: 6.0000000
Column name: Acquity CSHC18
Retention time: 0.583 min
Base peak: 163.06082
Precursor m/z: 163.06082
Precursor type: [M+H]+
m/z	relative intensity
98.9631	1
113.94	1
113.9643	91
154.9669	160
169.0675	18
169.9659	1
182.033	36
184.9859	172
185.0422	999
201.0074	1
216.9806	1
247.0116	25
247.0132	21
256.9979	85
258.0065	27
261.9772	127
262.9853	467
263.99	16
303.0049	22
363.0608	1
378.0251	539
379.0316	60
