Mass spectrum: gamma-Aminobutyric acid; LC-ESI-ITFT; MS2; CE: 100;  [M+H]+
Name: gamma-Aminobutyric acid
Class: Organic acids and derivatives; Carboxylic acids and derivatives; Amino acids, peptides, and analogues
Formula: C4H9NO2
Exact mass: 103.06333
SMILES: NCCCC(O)=O
InChI: InChI=1S/C4H9NO2/c5-3-1-2-4(6)7/h1-3,5H2,(H,6,7)
Instrument: Thermo Scientific Q-Exactive Focus
Instrument type: LC-ESI-ITFT
Ms type: MS2
Ion mode: POSITIVE
Ionization: ESI
Collision energy: 100
Column name: Acquity CSHC18
Retention time: 2.570 min
Base peak: 104.07061
Precursor m/z: 104.07061
Precursor type: [M+H]+
m/z	relative intensity
51.2054	118
53.0028	999
54.1485	126
57.5076	117
65.092	112
76.0441	112
76.5336	114
78.5185	116
81.6379	136
86.6377	123
