Mass spectrum: Hesperitin-7-O-beta-rutinosid; LC-ESI-QTOF; MS2; CE: 50eV;  [M+H]+
Name: Hesperitin-7-O-beta-rutinosid
Class: Flavanone
Formula: C28H34O15
Exact mass: 610.1898
SMILES: CC1C(C(C(C(O1)OCC2C(C(C(C(O2)OC3=CC(=C4C(=O)CC(OC4=C3)C5=CC(=C(C=C5)OC)O)O)O)O)O)O)O)O
InChI: InChI=1S/C28H34O15/c1-10-21(32)23(34)25(36)27(40-10)39-9-19-22(33)24(35)26(37)28(43-19)41-12-6-14(30)20-15(31)8-17(42-18(20)7-12)11-3-4-16(38-2)13(29)5-11/h3-7,10,17,19,21-30,32-37H,8-9H2,1-2H3
Instrument: TIMS-TOF Pro, Bruker Daltonik; Elute UHPLC System, Bruker Daltonik
Instrument type: LC-ESI-QTOF
Ms type: MS2
Ion mode: POSITIVE
Ionization: ESI
Collision energy: 50eV
Column name: Acquity CSHC18
Retention time: 5.594 min
Base peak: 611.1943
Precursor m/z: 611.1943
Precursor type: [M+H]+
Precursor intensity: 15264.69
m/z	relative intensity
42.1463	5
57.0321	6
62.7914	5
71.0487	96
75.0432	8
83.0488	11
85.0283	186
86.032	11
99.0366	5
108.7998	6
129.0513	23
137.061	8
147.0652	114
153.0099	55
154.0223	14
160.1066	7
165.0059	10
177.0531	87
179.0347	26
189.0752	5
191.678	7
195.027	42
196.0298	5
207.0225	5
219.0261	17
250.0404	4
263.047	14
272.4801	3
281.0637	29
282.0701	17
285.0759	18
297.0476	4
299.0774	9
302.0812	9
302.9477	5
303.0706	999
303.5804	13
304.0603	33
305.0917	29
306.0985	5
306.6734	4
327.0851	8
345.0882	73
346.0999	32
367.4744	4
369.0943	45
371.0996	4
390.0626	3
413.1212	67
429.1068	8
431.1206	72
432.1391	16
447.0683	3
447.1287	21
449.1186	83
450.1431	18
465.1379	185
466.1445	38
467.1453	12
558.1238	5
