Mass spectrum: (E)-alpha-santalenoic acid; LC-ESI-QTOF; MS2; CE: -10,-35,-60V;  [M-H]-
Name: (E)-alpha-santalenoic acid
Class: sesquiterpene carboxylic acid
Formula: C15H22O2
Exact mass: 234.1620
SMILES: CC(=CCCC1(C2CC3C1(C3C2)C)C)C(=O)O
InChI: InChI=1S/C15H22O2/c1-9(13(16)17)5-4-6-14(2)10-7-11-12(8-10)15(11,14)3/h5,10-12H,4,6-8H2,1-3H3,(H,16,17)
Instrument: TripleToF5600, Sciex; Acquity, Waters
Instrument type: LC-ESI-QTOF
Ms type: MS2
Ion mode: NEGATIVE
Ionization: ESI
Collision energy: -10,-35,-60V
Column name: Acquity CSHC18
Retention time: 13.985 min
Base peak: 233.1565
Precursor m/z: 233.1565
Precursor type: [M-H]-
Precursor intensity: 4988577
m/z	relative intensity
98.0354	15
189.1643	8
221.1592	46
232.4239	329
233.042	43
233.1584	485
233.4236	150
233.6696	73
233.7947	999
233.9718	840
234.0107	852
234.0279	848
234.7563	187
235.161	167
235.3558	72
235.6981	35
235.8174	31
235.9453	28
