Mass spectrum: Nandrolone; LC-ESI-QTOF; MS2; CE: 10;  [M+H]+
Name: Nandrolone
Class: NA
Formula: C18H26O2
Exact mass: 274.1933
SMILES: C[C@]12CC[C@H]3[C@H]([C@@H]1CC[C@@H]2O)CCC4=CC(=O)CC[C@H]34
InChI: InChI=1S/C18H26O2/c1-18-9-8-14-13-5-3-12(19)10-11(13)2-4-15(14)16(18)6-7-17(18)20/h10,13-17,20H,2-9H2,1H3/t13-,14+,15+,16-,17-,18-/m0/s1
Instrument: Agilent 6560Â Ion Mobility Q-TOF LC/MS
Instrument type: LC-ESI-QTOF
Ms type: MS2
Ion mode: POSITIVE
Ionization: ESI
Collision energy: 10
Column name: Acquity CSHC18
Retention time: 0.200 min
Base peak: 275.1996
Precursor m/z: 275.1996
Precursor type: [M+H]+
Precursor intensity: 69.5
m/z	relative intensity
81.072	90
83.051	91
91.0548	105
93.0692	109
107.0669	113
109.0688	121
121.102	123
135.1015	125
143.0838	139
145.1033	144
147.1201	148
149.1339	148
163.1137	157
183.1168	167
185.1332	168
199.1498	178
239.1852	178
256.9648	370
257.196	379
275.2144	387
276.2014	999
