Mass spectrum: SPERMINE; LC-ESI-QFT; MS2; CE: 30eV;  [M+H]+
Name: SPERMINE
Class: NA
Formula: C10H26N4
Exact mass: 202.21575
SMILES: NCCCNCCCCNCCCN
InChI: InChI=1S/C10H26N4/c11-5-3-9-13-7-1-2-8-14-10-4-6-12/h13-14H,1-12H2
Instrument: Q-Exactive Orbitrap, Thermo Scientfic; Ultimate 3000 HPLC, Thermo Scientfic
Instrument type: LC-ESI-QFT
Ms type: MS2
Ion mode: POSITIVE
Ionization: ESI
Collision energy: 30eV
Column name: Acquity CSHC18
Retention time: 0.561 min
Base peak: 203.2230
Precursor m/z: 203.2230
Precursor type: [M+H]+
Precursor intensity: 140
m/z	relative intensity
50.9673	4
53.3099	4
58.066	149
59.0694	6
62.0345	4
64.9488	4
70.0658	5
72.0816	138
75.0926	5
77.223	5
84.0815	236
89.7951	5
92.6239	5
103.4382	5
105.1577	5
113.1161	125
116.9106	5
126.0557	6
130.1365	9
130.1424	254
143.5431	5
144.0655	7
154.894	6
169.1836	5
178.409	5
181.1306	6
182.3326	5
203.2236	999
204.2274	70
218.394	5
