Mass spectrum: GDP-L-fucose; LC-ESI-QTOF; MS2; CE: 60;  [M+H]+
Name: GDP-L-fucose
Class: Purine nucleotide sugars
Formula: C16H25N5O15P2
Exact mass: 589.08224
SMILES: C[C@@H]1OC(OP(O)(=O)OP(O)(=O)OC[C@H]2O[C@H]([C@H](O)[C@@H]2O)N2C=NC3=C2N=C(N)NC3=O)[C@@H](O)[C@H](O)[C@@H]1O
InChI: InChI=1S/C16H25N5O15P2/c1-4-7(22)9(24)11(26)15(33-4)35-38(30,31)36-37(28,29)32-2-5-8(23)10(25)14(34-5)21-3-18-6-12(21)19-16(17)20-13(6)27/h3-5,7-11,14-15,22-26H,2H2,1H3,(H,28,29)(H,30,31)(H3,17,19,20,27)/t4-,5+,7+,8+,9+,10+,11-,14+,15?/m0/s1
Instrument: impact II
Instrument type: LC-ESI-QTOF
Ms type: MS2
Ion mode: POSITIVE
Ionization: ESI
Collision energy: 60
Column name: Acquity CSHC18
Retention time: 1.858 min
Base peak: 590.08910
Precursor m/z: 590.08910
Precursor type: [M+H]+
m/z	relative intensity
55.0552	2
57.0347	3
73.0294	2
75.0446	6
83.0501	2
97.0286	40
98.0318	4
98.9853	2
109.0508	2
110.0347	16
111.043	2
134.0463	2
135.03	74
136.0332	4
152.0268	2
152.0564	999
152.0709	79
152.112	3
152.1441	5
152.1559	8
152.1735	3
152.215	3
152.2249	4
152.2712	2
153.0404	13
153.059	75
154.0608	4
176.0567	8
178.9481	2
194.0662	10
202.0729	1
206.0655	2
218.0666	3
244.082	3
262.0928	2
280.1011	1
298.1158	2
588.4089	6
589.4144	2
