Mass spectrum: L-Saccharopine; ESI-TOF; MS2; CE: 0.6458333;  [M+H]+
Name: L-Saccharopine
Class: NA
Formula: C11H20N2O6
Exact mass: 276.13214
SMILES: N[C@@H](CCCCN[C@@H](CCC(O)=O)C(O)=O)C(O)=O
InChI: InChI=1S/C11H20N2O6/c12-7(10(16)17)3-1-2-6-13-8(11(18)19)4-5-9(14)15/h7-8,13H,1-6,12H2,(H,14,15)(H,16,17)(H,18,19)/t7-,8-/m0/s1
Instrument: waters xevo g2 TOF
Instrument type: ESI-TOF
Ms type: MS2
Ion mode: POSITIVE
Ionization: ESI
Collision energy: 0.6458333
Column name: Acquity CSHC18
Retention time: 0.538 min
Base peak: 277.14014
Precursor m/z: 277.14014
Precursor type: [M+H]+
m/z	relative intensity
84.0812	999
85.0846	42
99.9696	13
101.9406	5
116.0715	3
130.0865	171
131.0897	16
142.0496	10
168.1023	22
170.0804	11
195.1133	105
213.1236	246
231.1336	12
259.1291	36
277.1396	22
