Mass spectrum: Naringin; LC-ESI-ITFT; MS2; CE: 45eV;  [M+H]+
Name: Naringin
Class: Flavonoid
Formula: C27H32O14
Exact mass: 580.1792
SMILES: CC1C(C(C(C(O1)OC2C(C(C(OC2OC3=CC(=C4C(=O)CC(OC4=C3)C5=CC=C(C=C5)O)O)CO)O)O)O)O)O
InChI: InChI=1S/C27H32O14/c1-10-20(32)22(34)24(36)26(37-10)41-25-23(35)21(33)18(9-28)40-27(25)38-13-6-14(30)19-15(31)8-16(39-17(19)7-13)11-2-4-12(29)5-3-11/h2-7,10,16,18,20-30,32-36H,8-9H2,1H3
Instrument: LTQ Orbitrap XL, Thermo Scientfic; Dionex Ultimate 300
Instrument type: LC-ESI-ITFT
Ms type: MS2
Ion mode: POSITIVE
Ionization: ESI
Collision energy: 45eV
Column name: Alltima C18
Retention time: 11.66 min
Base peak: 581.1892
Precursor m/z: 581.1892
Precursor type: [M+H]+
m/z	relative intensity
263.1402	1
271.0513	999
308.9617	1
338.0595	1
381.1462	14
383.2958	48
413.0925	3
425.0776	12
433.1019	348
497.1398	18
508.635	2
523.3801	1
539.4891	1
553.1691	1
