Mass spectrum: 10-HYDROXYDECANOATE; LC-ESI-QFT; MS2; CE: 30eV;  [M-H]-
Name: 10-HYDROXYDECANOATE
Class: NA
Formula: C10H20O3
Exact mass: 188.14124
SMILES: C(CCCCC(=O)O)CCCCO
InChI: InChI=1S/C10H20O3/c11-9-7-5-3-1-2-4-6-8-10(12)13/h11H,1-9H2,(H,12,13)
Instrument: Q-Exactive Orbitrap, Thermo Scientfic; Ultimate 3000 HPLC, Thermo Scientfic
Instrument type: LC-ESI-QFT
Ms type: MS2
Ion mode: NEGATIVE
Ionization: ESI
Collision energy: 30eV
Column name: Acquity CSHC18
Retention time: 9.934 min
Base peak: 187.1340
Precursor m/z: 187.1340
Precursor type: [M-H]-
Precursor intensity: 130
m/z	relative intensity
52.8186	21
52.82	30
53.1244	25
54.5299	30
57.3211	23
59.6562	28
66.3239	29
75.8892	29
77.7668	33
86.2894	32
88.3419	30
92.6796	30
93.0052	35
99.9474	57
110.9575	34
113.9398	47
115.7665	29
125.0957	310
125.8719	56
129.9351	71
139.4232	34
141.1272	846
141.867	139
142.9431	150
143.8977	73
152.7159	36
187.0967	80
187.133	999
188.137	43
193.863	40
202.867	33
