Mass spectrum: 1-palmitoyl-2-oleoyl-sn-glycero-3-phosphoethanolamine; ESI-TOF; MS2; CE: 6.0000000;  [M+H]+
Name: 1-palmitoyl-2-oleoyl-sn-glycero-3-phosphoethanolamine
Class: NA
Formula: C39H76NO8P
Exact mass: 717.53086
SMILES: [H]C(=C([H])C([H])([H])C([H])([H])C([H])([H])C([H])([H])C([H])([H])C([H])([H])C([H])([H])C([H])([H])[H])C([H])([H])C([H])([H])C([H])([H])C([H])([H])C([H])([H])C([H])([H])C([H])([H])C(=O)OC([H])(C([H])([H])OC(=O)C([H])([H])C([H])([H])C([H])([H])C([H])([H])C([H])([H])C([H])([H])C([H])([H])C([H])([H])C([H])([H])C([H])([H])C([H])([H])C([H])([H])C([H])([H])C([H])([H])C([H])([H])[H])C([H])([H])OP(=O)([O-])OC([H])([H])C([H])([H])[N+]([H])([H])[H]
InChI: InChI=1S/C39H76NO8P/c1-3-5-7-9-11-13-15-17-18-20-22-24-26-28-30-32-39(42)48-37(36-47-49(43,44)46-34-33-40)35-45-38(41)31-29-27-25-23-21-19-16-14-12-10-8-6-4-2/h17-18,37H,3-16,19-36,40H2,1-2H3,(H,43,44)
Instrument: waters xevo g2 TOF
Instrument type: ESI-TOF
Ms type: MS2
Ion mode: POSITIVE
Ionization: ESI
Collision energy: 6.0000000
Column name: Acquity CSHC18
Retention time: 11.213 min
Base peak: 718.53886
Precursor m/z: 718.53886
Precursor type: [M+H]+
m/z	relative intensity
365.7375	10
366.2418	3
378.7466	65
379.2482	21
391.7536	14
392.2577	4
397.7192	6
431.1878	2
457.2032	7
551.5029	7
552.5108	1
566.4291	3
577.5193	83
578.5225	67
579.5269	13
603.5358	5
604.537	1
687.4262	5
692.523	27
693.5249	11
704.5219	3
713.4428	35
715.4469	3
718.5381	999
719.542	463
