Mass spectrum: Baicalein; LC-ESI-QTOF; MS2; CE: 15;  [M-H]-
Name: Baicalein
Class: NA
Formula: C15H10O5
Exact mass: 270.0528
SMILES: C1=CC=C(C=C1)C2=CC(=O)C3=C(O2)C=C(C(=C3O)O)O
InChI: InChI=1S/C15H10O5/c16-9-6-11(8-4-2-1-3-5-8)20-12-7-10(17)14(18)15(19)13(9)12/h1-7,17-19H
Instrument: Bruker MicrOTOF-Q
Instrument type: LC-ESI-QTOF
Ms type: MS2
Ion mode: NEGATIVE
Ionization: ESI
Collision energy: 15
Column name: Acquity CSHC18
Retention time: NA
Base peak: 269.0455
Precursor m/z: 269.0455
Precursor type: [M-H]-
m/z	relative intensity
46.8551	2
51.742	2
56.4487	2
57.9405	2
58.929	2
59.5256	2
60.1665	2
62.0392	2
63.0166	3
66.0267	2
71.0335	2
71.943	3
74.555	3
76.1391	2
78.3716	2
80.6415	2
84.3793	2
85.8132	2
86.2661	2
88.8721	3
90.0813	3
90.9436	2
92.0259	3
94.3334	2
95.0078	7
95.9066	3
96.5074	2
96.9966	2
98.2424	2
98.6563	3
99.5205	2
101.173	3
102.1808	2
104.5746	3
108.1111	2
108.9704	2
110.4315	2
111.3141	4
112.2803	2
113.6129	2
114.1576	2
115.0594	3
116.2952	3
116.9912	4
117.6614	3
118.7791	3
120.7989	2
122.4403	11
123.6159	3
124.0161	3
124.8292	3
127.4747	4
129.2102	3
130.0309	2
130.4938	2
131.0165	2
132.0355	3
133.0243	3
133.9844	3
134.6728	3
135.9441	3
137.6983	18
139.9102	3
140.5591	3
141.0718	89
141.6189	3
142.2184	6
143.031	11
144.0005	4
144.4863	3
144.9592	16
145.8878	3
147.0263	2
147.8965	2
149.0714	3
149.9988	14
150.9455	26
152.1061	3
153.2121	18
154.633	5
156.0583	2
156.9956	11
157.7812	4
158.4991	2
159.9844	3
160.6978	3
161.8038	3
163.1327	3
164.5202	9
165.4569	2
167.3326	15
170.2029	31
173.2577	7
174.0213	3
175.4354	3
176.6176	3
178.1909	6
179.8334	18
181.0655	63
182.0578	7
183.1097	11
183.9391	6
184.8557	44
186.4692	5
187.5253	3
189.2109	3
189.9683	2
190.9577	3
192.0062	37
192.7648	3
196.4063	59
200.4547	7
202.3798	4
203.3313	2
204.2966	2
205.0677	2
206.2085	3
207.4948	36
209.0465	3
210.0355	7
210.8724	23
211.9376	7
213.8834	26
215.9343	2
218.3825	3
219.862	2
221.3041	2
223.9664	75
226.8422	18
228.0152	4
228.8852	2
229.7421	2
230.566	2
231.4832	2
232.2937	3
233.0414	3
233.7727	3
234.936	2
236.0079	3
238.4826	3
241.1313	83
245.6674	2
246.328	3
247.1158	3
248.7278	3
251.3796	78
254.0711	3
255.1045	3
256.2698	2
258.9387	2
260.2315	3
262.4838	2
266.2022	3
267.0283	4
268.0997	50
270.7243	999
