Mass spectrum: N-Heptanoyl-L-homoserine lactone; LC-ESI-ITFT; MS2; CE: 20;  [M+H]+
Name: N-Heptanoyl-L-homoserine lactone
Class: NA
Formula: C11H19NO3
Exact mass: 213.13649
SMILES: CCCCCCC(=O)N[C@H]1CCOC1=O
InChI: InChI=1S/C11H19NO3/c1-2-3-4-5-6-10(13)12-9-7-8-15-11(9)14/h9H,2-8H2,1H3,(H,12,13)/t9-/m0/s1
Instrument: Thermo Scientific Q-Exactive Focus
Instrument type: LC-ESI-ITFT
Ms type: MS2
Ion mode: POSITIVE
Ionization: ESI
Collision energy: 20
Column name: Acquity CSHC18
Retention time: 0.634 min
Base peak: 214.14377
Precursor m/z: 214.14377
Precursor type: [M+H]+
m/z	relative intensity
56.05	143
57.0704	482
74.0241	109
74.0605	643
84.0447	58
85.0287	71
85.1015	999
95.0858	124
102.0552	901
113.0962	304
