Mass spectrum: O-acetylstemmadenine; ESI-QTOF; MS2; CE: 30 eV;  [M+H]+
Name: O-acetylstemmadenine
Class: NA
Formula: C23H28N2O4
Exact mass: 396.2049
SMILES: CC(=C1CN2CCC=3C4=CC=CC=C4NC3C(COC(C)=O)(C1(CC2)[H])C(=O)OC)[H]
InChI: InChI=1S/C23H28N2O4/c1-4-16-13-25-11-9-18-17-7-5-6-8-20(17)24-21(18)23(22(27)28-3,14-29-15(2)26)19(16)10-12-25/h4-8,19,24H,9-14H2,1-3H3
Instrument: Synapt (HDMS 1st gen)
Instrument type: ESI-QTOF
Ms type: MS2
Ion mode: POSITIVE
Ionization: ESI
Collision energy: 30 eV
Column name: Acquity CSHC18
Retention time: 12.199 min
Base peak: 397.2137
Precursor m/z: 397.2137
Precursor type: [M+H]+
Precursor intensity: 3111.01
m/z	relative intensity
122.097	80
168.081	112
196.0789	124
228.102	140
230.119	251
305.166	269
337.191	460
338.1963	832
397.2078	999
