Mass spectrum: Cystine; LC-ESI-ITFT; MS2; CE: 45eV;  [M+H]+
Name: Cystine
Class: aminoacid
Formula: C6H12N2O4S2
Exact mass: 240.0238
SMILES: C(C(C(=O)O)N)SSCC(C(=O)O)N
InChI: InChI=1S/C6H12N2O4S2/c7-3(5(9)10)1-13-14-2-4(8)6(11)12/h3-4H,1-2,7-8H2,(H,9,10)(H,11,12)
Instrument: LTQ Orbitrap XL, Thermo Scientfic; Dionex Ultimate 300
Instrument type: LC-ESI-ITFT
Ms type: MS2
Ion mode: POSITIVE
Ionization: ESI
Collision energy: 45eV
Column name: Alltima C18
Retention time: 2.1 min
Base peak: 241.0304
Precursor m/z: 241.0304
Precursor type: [M+H]+
m/z	relative intensity
84.8705	22
89.9145	139
107.8997	25
119.8895	999
142.9579	10
161.8164	5
172.2634	10
188.1031	3
205.0078	82
210.8305	34
219.2921	5
231.7384	77
