Mass spectrum: EPINEPHRINE; LC-ESI-QTOF; MS2; CE: 20;  [M+H]+
Name: EPINEPHRINE
Class: NA
Formula: C9H13NO3
Exact mass: 183.08954
SMILES: CNC[C@H](O)C1=CC=C(O)C(O)=C1
InChI: InChI=1S/C9H13NO3/c1-10-5-9(13)6-2-3-7(11)8(12)4-6/h2-4,9-13H,5H2,1H3/t9-/m0/s1
Instrument: Agilent 6530Â Q-TOF LC/MS
Instrument type: LC-ESI-QTOF
Ms type: MS2
Ion mode: POSITIVE
Ionization: ESI
Collision energy: 20
Column name: NA
Retention time: 0.200 min
Base peak: 184.09427
Precursor m/z: 184.09427
Precursor type: [M+H]+
Precursor intensity: 28.5
m/z	relative intensity
41.0371	33
42.0548	34
43.0304	35
44.0552	36
51.027	38
52.0308	39
53.0361	40
55.0243	40
56.0572	40
57.0817	41
58.0841	42
65.0376	43
67.0472	46
72.0432	46
77.0652	46
78.0493	47
79.0704	54
80.0595	54
81.0574	57
84.0882	57
85.0606	61
89.0494	66
90.0419	69
91.0754	70
93.0688	70
94.0555	71
95.0748	73
101.9544	74
102.0991	75
103.0597	75
104.0541	77
105.0621	77
106.0483	81
107.1194	81
108.0674	82
109.0557	88
110.0514	93
118.0714	101
119.0636	102
120.1071	104
121.0732	104
122.0558	123
123.0773	126
124.0648	135
128.1061	139
130.066	143
131.0614	147
131.8466	156
132.0441	182
133.066	233
134.0604	235
135.0742	251
136.0451	260
137.0731	338
138.0848	345
146.0629	430
147.062	508
148.1063	549
149.0949	571
150.0727	598
151.096	641
151.6707	668
165.0755	831
166.1302	973
184.1722	999
