Mass spectrum: 22,26-Epimino-23alpha-hydroxy-16beta, 23-epoxy-5alpha, 22alphaH, 25betaH-cholestan-3-on; APCI-ITFT; MS2; CE: CID 35;  [M-H]-
Name: 22,26-Epimino-23alpha-hydroxy-16beta, 23-epoxy-5alpha, 22alphaH, 25betaH-cholestan-3-on
Class: NA
Formula: C27H43NO3
Exact mass: 429.32429
SMILES: O=C1CC[C@@]2(C)[C@](CC[C@]3([H])[C@]2([H])CC[C@@]4(C)[C@@]3([H])C[C@@]([H])(O[C@@](C[C@H](C)CN5)(O)[C@@]5([H])[C@H]6C)[C@@]46[H])([H])C1
InChI: InChI=1S/C27H43NO3/c1-15-13-27(30)24(28-14-15)16(2)23-22(31-27)12-21-19-6-5-17-11-18(29)7-9-25(17,3)20(19)8-10-26(21,23)4/h15-17,19-24,28,30H,5-14H2,1-4H3/t15-,16-,17-,19+,20-,21-,22+,23-,24+,25-,26-,27+/m0/s1
Instrument: Orbitrap Elite
Instrument type: APCI-ITFT
Ms type: MS2
Ion mode: NEGATIVE
Ionization: APCI
Collision energy: CID 35
Column name: Acquity CSHC18
Retention time: 0.123 min
Base peak: 428.31630
Precursor m/z: 428.31630
Precursor type: [M-H]-
Precursor intensity: 6577292
m/z	relative intensity
137.0611	3
140.0722	1
162.0935	5
182.1184	4
217.1609	1
269.1916	1
271.171	25
271.2054	3
273.1848	31
275.2037	2
285.1847	3
285.2218	2
287.2022	81
288.204	4
297.1859	2
297.2215	13
299.2035	52
299.2389	44
301.1791	2
301.2148	2
311.2017	2
313.2173	127
314.2204	17
315.2331	362
316.2357	2
317.2487	93
325.2171	2
327.2334	21
328.2281	8
329.2483	37
331.2247	1
335.2579	3
340.2645	12
341.2498	5
342.2442	9
343.2279	11
344.2584	182
345.238	1
348.2261	1
356.2622	2
358.2742	9
359.261	2
366.247	4
368.258	7
370.2734	2
372.2562	2
376.2642	32
380.2988	15
382.2408	2
382.3112	5
384.2176	7
384.2563	16
384.2899	15
386.2695	20
390.2807	59
391.2651	3
392.2951	100
394.2761	31
396.2515	2
397.2589	3
398.3061	7
400.249	4
400.3273	10
406.2752	13
407.2731	3
408.2885	336
409.2744	55
410.3089	793
411.2727	9
412.2838	999
413.2892	11
424.2856	5
425.2877	2
426.3035	13
427.2834	51
428.2864	38
