Mass spectrum: Daidzein; LC-ESI-ITFT; MS2; CE: 40;  [M-H]-
Name: Daidzein
Class: Phenylpropanoids and polyketides; Isoflavonoids; Isoflav-2-enes
Formula: C15H10O4
Exact mass: 254.05791
SMILES: OC1=CC=C(C=C1)C1=COC2=C(C=CC(O)=C2)C1=O
InChI: InChI=1S/C15H10O4/c16-10-3-1-9(2-4-10)13-8-19-14-7-11(17)5-6-12(14)15(13)18/h1-8,16-17H
Instrument: Thermo Scientific Q-Exactive Focus
Instrument type: LC-ESI-ITFT
Ms type: MS2
Ion mode: NEGATIVE
Ionization: ESI
Collision energy: 40
Column name: Acquity CSHC18
Retention time: 1.481 min
Base peak: 253.05063
Precursor m/z: 253.05063
Precursor type: [M-H]-
m/z	relative intensity
91.0177	999
132.0205	691
133.0283	536
135.0076	213
180.0571	309
195.0442	296
196.0521	157
208.0523	535
223.0394	605
224.0473	222
