Mass spectrum: L-Leucine; LC-ESI-ITFT; MS2; CE: 20;  [M+H]+
Name: L-Leucine
Class: Organic acids and derivatives; Carboxylic acids and derivatives; Amino acids, peptides, and analogues
Formula: C6H13NO2
Exact mass: 131.09463
SMILES: CC(C)C[C@H](N)C(O)=O
InChI: InChI=1S/C6H13NO2/c1-4(2)3-5(7)6(8)9/h4-5H,3,7H2,1-2H3,(H,8,9)/t5-/m0/s1
Instrument: Thermo Scientific Q-Exactive Focus
Instrument type: LC-ESI-ITFT
Ms type: MS2
Ion mode: POSITIVE
Ionization: ESI
Collision energy: 20
Column name: Acquity CSHC18
Retention time: 0.630 min
Base peak: 132.10191
Precursor m/z: 132.10191
Precursor type: [M+H]+
m/z	relative intensity
69.0704	53
86.0968	999
88.0569	22
102.2682	21
102.4331	21
103.2472	26
114.3744	21
120.1834	22
126.6838	22
126.8601	24
