Mass spectrum: Succinylacetone; LC-ESI-ITFT; MS2; CE: 20;  [M-H]-
Name: Succinylacetone
Class: Organic acids and derivatives; Keto acids and derivatives; Medium-chain keto acids and derivatives
Formula: C7H10O4
Exact mass: 158.05791
SMILES: CC(=O)CC(=O)CCC(O)=O
InChI: InChI=1S/C7H10O4/c1-5(8)4-6(9)2-3-7(10)11/h2-4H2,1H3,(H,10,11)
Instrument: Thermo Scientific Q-Exactive Focus
Instrument type: LC-ESI-ITFT
Ms type: MS2
Ion mode: NEGATIVE
Ionization: ESI
Collision energy: 20
Column name: Acquity CSHC18
Retention time: 0.644 min
Base peak: 157.05063
Precursor m/z: 157.05063
Precursor type: [M-H]-
m/z	relative intensity
55.0177	86
57.0334	762
69.0333	46
71.049	999
95.049	118
97.0283	149
98.0361	35
99.0075	486
113.0596	161
115.0389	591
