Mass spectrum: L-Homoserine lactone; LC-ESI-ITFT; MS2; CE: 30;  [M+H]+
Name: L-Homoserine lactone
Class: NA
Formula: C4H7NO2
Exact mass: 101.04768
SMILES: C1COC(=O)[C@H]1N
InChI: InChI=1S/C4H7NO2/c5-3-1-2-7-4(3)6/h3H,1-2,5H2/t3-/m0/s1
Instrument: Thermo Scientific Q-Exactive Focus
Instrument type: LC-ESI-ITFT
Ms type: MS2
Ion mode: POSITIVE
Ionization: ESI
Collision energy: 30
Column name: Acquity CSHC18
Retention time: 0.647 min
Base peak: 102.05496
Precursor m/z: 102.05496
Precursor type: [M+H]+
m/z	relative intensity
56.05	999
57.1111	26
58.0656	51
74.0241	320
76.7726	27
80.2164	26
88.4876	30
94.0294	27
94.7012	28
95.1238	28
