Mass spectrum: 11-deoxy Prostaglandin F1-alpha; ESI-TOF; MS2; CE: 0.6458333;  [M+H]+
Name: 11-deoxy Prostaglandin F1-alpha
Class: NA
Formula: C20H36O4
Exact mass: 340.26136
SMILES: O[C@@H]1[C@H](CCCCCCC(O)=O)[C@@H](/C=C/[C@@H](O)CCCCC)CC1
InChI: InChI=1S/C20H36O4/c1-2-3-6-9-17(21)14-12-16-13-15-19(22)18(16)10-7-4-5-8-11-20(23)24/h12,14,16-19,21-22H,2-11,13,15H2,1H3,(H,23,24)/b14-12+/t16-,17-,18+,19-/m0/s1
Instrument: waters xevo g2 TOF
Instrument type: ESI-TOF
Ms type: MS2
Ion mode: POSITIVE
Ionization: ESI
Collision energy: 0.6458333
Column name: Acquity CSHC18
Retention time: 4.062 min
Base peak: 341.26936
Precursor m/z: 341.26936
Precursor type: [M+H]+
m/z	relative intensity
67.054	155
69.0705	112
77.0384	11
79.055	341
81.0705	409
83.0859	101
85.064	21
91.0556	234
93.0707	803
94.0738	64
95.0863	440
97.1028	47
105.0708	343
106.075	18
107.0869	659
108.0902	64
109.1022	210
119.0871	335
120.0921	30
121.1022	999
122.1063	100
123.1182	55
129.0717	57
131.0862	126
133.1023	276
134.1065	22
135.1176	381
136.1222	46
137.1349	46
143.0864	83
147.1178	219
148.1222	26
149.1335	114
150.138	16
157.1009	69
159.1179	65
161.134	202
162.1385	23
163.1486	134
164.1509	12
171.0565	63
172.1009	12
172.9928	14
175.1487	115
177.1647	199
178.1675	15
185.1332	88
187.1467	24
189.1447	42
191.1797	68
193.1234	92
195.1382	43
199.1489	35
203.1638	37
221.1884	73
235.1694	116
249.1857	62
262.0646	26
263.1994	17
269.2252	45
270.2277	6
287.2376	57
303.2313	13
305.248	601
306.2507	125
311.2541	18
329.2643	36
343.1948	230
