Mass spectrum: Miltirone; LC-ESI-QFT; MS2; CE: 15,30,45 (NCE);  [M+ACN+Na]+
Name: Miltirone
Class: NA
Formula: C19H22O2
Exact mass: 282.1620
SMILES: CC(C)C1=CC2=C(C(=O)C1=O)C1=C(C=C2)C(C)(C)CCC1
InChI: InChI=1S/C19H22O2/c1-11(2)14-10-12-7-8-15-13(6-5-9-19(15,3)4)16(12)18(21)17(14)20/h7-8,10-11H,5-6,9H2,1-4H3
Instrument: QE Focus, Thermo Scientfic; UPLC I-Class, Waters
Instrument type: LC-ESI-QFT
Ms type: MS2
Ion mode: POSITIVE
Ionization: ESI
Collision energy: 15,30,45 (NCE)
Column name: Acquity CSHC18
Retention time: 5.079 min
Base peak: 346.1778
Precursor m/z: 346.1778
Precursor type: [M+ACN+Na]+
Precursor intensity: 88304460
m/z	relative intensity
53.5934	1
58.3332	1
70.642	1
96.2758	1
97.425	1
104.2351	1
158.6211	1
223.4209	1
230.4643	1
237.4182	1
269.614	1
282.0745	1
305.1511	999
307.5356	1
323.1617	10
346.1785	9
