Mass spectrum: Chlorogenic acid; LC-ESI-QFT; MS2; CE: 15,30,45 (NCE);  [M-H]-
Name: Chlorogenic acid
Class: NA
Formula: C16H18O9
Exact mass: 354.0951
SMILES: OC1CC(O)(CC(OC(=O)\\C=C/C2=CC(O)=C(O)C=C2)C1O)C(O)=O
InChI: InChI=1S/C16H18O9/c17-9-3-1-8(5-10(9)18)2-4-13(20)25-12-7-16(24,15(22)23)6-11(19)14(12)21/h1-5,11-12,14,17-19,21,24H,6-7H2,(H,22,23)/b4-2-
Instrument: QE Focus, Thermo Scientfic; UPLC I-Class, Waters
Instrument type: LC-ESI-QFT
Ms type: MS2
Ion mode: NEGATIVE
Ionization: ESI
Collision energy: 15,30,45 (NCE)
Column name: Acquity CSHC18
Retention time: 0.886 min
Base peak: 353.0880
Precursor m/z: 353.0880
Precursor type: [M-H]-
Precursor intensity: 97281830
m/z	relative intensity
59.0123	286
173.0446	999
