Mass spectrum: 13,14-dihydro-15-keto Prostaglandin E2; ESI-TOF; MS2; CE: 6.0000000;  [M+H]+
Name: 13,14-dihydro-15-keto Prostaglandin E2
Class: NA
Formula: C20H32O5
Exact mass: 352.22497
SMILES: CCCCCC(=O)CC[C@H]1[C@H](O)CC(=O)[C@@H]1C\C=C/CCCC(O)=O
InChI: InChI=1S/C20H32O5/c1-2-3-6-9-15(21)12-13-17-16(18(22)14-19(17)23)10-7-4-5-8-11-20(24)25/h4,7,16-17,19,23H,2-3,5-6,8-14H2,1H3,(H,24,25)/b7-4-/t16-,17-,19-/m1/s1
Instrument: waters xevo g2 TOF
Instrument type: ESI-TOF
Ms type: MS2
Ion mode: POSITIVE
Ionization: ESI
Collision energy: 6.0000000
Column name: Acquity CSHC18
Retention time: 3.533 min
Base peak: 353.23297
Precursor m/z: 353.23297
Precursor type: [M+H]+
m/z	relative intensity
105.0703	5
167.0718	38
174.0998	7
175.1114	5
187.0996	165
187.5897	32
196.0938	115
203.1063	43
205.0961	18
209.1518	8
253.1946	6
257.1904	7
271.2042	45
281.1899	32
289.2169	53
290.216	8
299.2004	279
300.2035	47
317.165	509
318.2141	233
319.2149	23
335.2211	999
336.2251	230
337.2286	27
349.2392	14
353.2313	19
354.1993	4
