Mass spectrum: m-coumaric acid; LC-ESI-QTOF; MS2; CE: 15;  [M-H]-
Name: m-coumaric acid
Class: NA
Formula: C9H8O3
Exact mass: 164.0473
SMILES: C1=CC(=CC(=C1)O)C=CC(=O)O
InChI: InChI=1S/C9H8O3/c10-8-3-1-2-7(6-8)4-5-9(11)12/h1-6,10H,(H,11,12)
Instrument: Bruker MicrOTOF-Q
Instrument type: LC-ESI-QTOF
Ms type: MS2
Ion mode: NEGATIVE
Ionization: ESI
Collision energy: 15
Column name: Acquity CSHC18
Retention time: NA
Base peak: 163.0401
Precursor m/z: 163.0401
Precursor type: [M-H]-
m/z	relative intensity
47.3313	15
50.8412	14
55.876	14
60.2833	15
61.1958	15
64.8373	13
68.8531	17
71.0341	14
75.9748	14
79.6662	17
80.6968	14
81.6757	11
82.6558	23
84.6611	14
86.637	9
88.574	15
90.9493	22
92.4652	9
93.9671	27
97.1612	13
99.9805	14
101.5113	13
103.6315	16
105.7398	14
107.4763	16
108.9209	11
109.4596	13
110.0547	12
111.0639	16
112.3846	20
114.1051	15
115.5682	13
116.964	71
119.8265	937
122.7862	10
123.8884	9
125.253	8
127.3228	14
128.3774	17
128.81	13
135.0442	18
138.6446	13
139.4932	17
140.6381	8
141.6558	13
145.0365	57
154.664	7
156.5805	13
163.041	999
164.0461	95
167.0905	9
193.3921	7
212.3867	16
218.9461	19
223.3177	11
269.939	10
270.9782	7
273.7197	13
277.4097	12
279.2177	15
303.8159	8
312.2057	12
362.4042	16
448.1696	8
458.4469	9
730.2657	8
776.5763	8
796.4694	9
838.3914	9
867.7893	9
930.0448	13
