Mass spectrum: C16-20:4 PC; ESI-TOF; MS2; CE: 6.0000000;  [M+H]+
Name: C16-20:4 PC
Class: NA
Formula: C44H82NO7P
Exact mass: 767.58289
SMILES: [H]C(=C([H])C([H])([H])C([H])=C([H])C([H])([H])C([H])([H])C([H])([H])C(=O)OC([H])(C([H])([H])OC([H])([H])C([H])([H])C([H])([H])C([H])([H])C([H])([H])C([H])([H])C([H])([H])C([H])([H])C([H])([H])C([H])([H])C([H])([H])C([H])([H])C([H])([H])C([H])([H])C([H])([H])C([H])([H])[H])C([H])([H])OP(=O)([O-])OC([H])([H])C([H])([H])[N+](C([H])([H])[H])(C([H])([H])[H])C([H])([H])[H])C([H])([H])C([H])=C([H])C([H])([H])C([H])=C([H])C([H])([H])C([H])([H])C([H])([H])C([H])([H])C([H])([H])[H]
InChI: InChI=1S/C44H82NO7P/c1-6-8-10-12-14-16-18-20-22-23-24-25-27-29-31-33-35-37-44(46)52-43(42-51-53(47,48)50-40-38-45(3,4)5)41-49-39-36-34-32-30-28-26-21-19-17-15-13-11-9-7-2/h14,16,20,22,24-25,29,31,43H,6-13,15,17-19,21,23,26-28,30,32-42H2,1-5H3
Instrument: waters xevo g2 TOF
Instrument type: ESI-TOF
Ms type: MS2
Ion mode: POSITIVE
Ionization: ESI
Collision energy: 6.0000000
Column name: Acquity CSHC18
Retention time: 11.374 min
Base peak: 768.59089
Precursor m/z: 768.59089
Precursor type: [M+H]+
m/z	relative intensity
184.0742	5
343.1954	18
344.1986	4
359.1681	14
360.1717	3
395.7836	4
403.7729	418
404.2736	194
404.7781	33
405.7697	6
411.7597	25
412.2604	7
412.7601	4
464.3503	75
465.3543	19
468.7513	6
476.7373	3
537.3935	5
553.3644	5
768.5907	999
769.5945	500
