Mass spectrum: 2-Hydroxybutyric acid; LC-ESI-ITFT; MS2; CE: 60;  [M-H]-
Name: 2-Hydroxybutyric acid
Class: Organic acids and derivatives; Hydroxy acids and derivatives; Alpha hydroxy acids and derivatives
Formula: C4H8O3
Exact mass: 104.04734
SMILES: CCC(O)C(O)=O
InChI: InChI=1S/C4H8O3/c1-2-3(5)4(6)7/h3,5H,2H2,1H3,(H,6,7)
Instrument: Thermo Scientific Q-Exactive Focus
Instrument type: LC-ESI-ITFT
Ms type: MS2
Ion mode: NEGATIVE
Ionization: ESI
Collision energy: 60
Column name: Acquity CSHC18
Retention time: 1.996 min
Base peak: 103.04007
Precursor m/z: 103.04007
Precursor type: [M-H]-
m/z	relative intensity
50.186	799
55.9834	759
58.4881	769
75.1895	776
78.5139	788
96.2974	806
112.4054	762
115.2657	787
120.9501	793
123.2663	999
