Mass spectrum: N-Acetylaspartic acid; LC-ESI-QTOF; MS2; CE: 10;  [M-H]-
Name: N-Acetylaspartic acid
Class: NA
Formula: C6H9NO5
Exact mass: 175.0481
SMILES: CC(=O)NC(CC(=O)O)C(=O)O
InChI: InChI=1S/C6H9NO5/c1-3(8)7-4(6(11)12)2-5(9)10/h4H,2H2,1H3,(H,7,8)(H,9,10)(H,11,12)
Instrument: impact II
Instrument type: LC-ESI-QTOF
Ms type: MS2
Ion mode: NEGATIVE
Ionization: ESI
Collision energy: 10
Column name: Acquity CSHC18
Retention time: 1.680 min
Base peak: 174.0397
Precursor m/z: 174.0397
Precursor type: [M-H]-
m/z	relative intensity
88.0409	999
112.0406	106
114.0195	164
115.0036	251
130.0508	544
174.0398	367
