Mass spectrum: Geranylpyrophosphate; LC-ESI-QTOF; MS2; CE: 15.98;  [M-H]-
Name: Geranylpyrophosphate
Class: NA
Formula: C10H20O7P2
Exact mass: 314.0684
SMILES: CC(=CCCC(=CCOP(=O)(O)OP(=O)(O)O)C)C
InChI: InChI=1S/C10H20O7P2/c1-9(2)5-4-6-10(3)7-8-16-19(14,15)17-18(11,12)13/h5,7H,4,6,8H2,1-3H3,(H,14,15)(H2,11,12,13)
Instrument: Bruker MicrOTOF-Q
Instrument type: LC-ESI-QTOF
Ms type: MS2
Ion mode: NEGATIVE
Ionization: ESI
Collision energy: 15.98
Column name: Acquity CSHC18
Retention time: NA
Base peak: 313.0612
Precursor m/z: 313.0612
Precursor type: [M-H]-
m/z	relative intensity
45.622	58
46.5551	30
49.878	27
51.7786	36
52.5719	51
53.568	52
54.8437	41
56.3657	41
57.7321	54
59.3068	44
59.9215	36
63.3213	40
63.9258	40
65.1934	32
68.855	40
70.0155	51
70.7604	48
72.3192	46
75.6923	54
77.4267	43
78.9571	999
79.778	65
80.7791	47
82.4792	41
83.2991	29
83.8845	54
85.2317	34
85.7665	37
87.5873	43
89.1231	43
90.4082	59
91.2794	43
93.0864	41
96.0074	38
96.8607	29
99.1355	45
101.913	28
102.6021	52
104.973	54
105.588	38
107.5925	34
109.6368	36
111.358	49
112.9617	56
113.5133	37
116.053	44
118.4081	47
121.3898	34
121.9003	33
123.9564	31
126.13	55
127.9241	51
130.4671	43
132.6933	40
133.6035	40
135.5732	37
137.3167	33
138.4963	45
139.4138	49
142.9345	43
145.305	59
147.1131	66
153.8119	38
157.8365	43
158.9463	995
160.3805	33
161.9482	29
162.7233	63
163.156	134
166.7087	34
168.1535	34
173.2504	45
176.2771	37
177.6382	66
182.3409	30
184.431	49
185.9055	58
189.4524	37
192.4862	27
195.2733	55
203.8983	38
204.9219	40
205.945	55
207.4226	47
209.9383	36
210.7442	52
221.9479	41
225.9758	158
226.8049	42
228.8217	29
230.7387	31
233.0902	48
234.0033	44
234.7107	37
237.353	36
243.844	54
249.7754	40
250.2755	29
257.9677	43
269.6142	43
272.8448	43
274.4108	40
288.973	41
294.9179	535
297.1385	39
311.5419	51
312.7332	325
314.0641	255
314.5998	47
315.0735	73
321.5795	38
333.6214	37
345.3313	72
364.1655	48
377.2132	61
381.8125	44
400.5563	58
429.1225	29
456.6271	33
473.5966	27
492.255	27
506.4962	36
585.5064	27
647.997	49
676.5683	43
741.8744	36
797.5494	31
801.9783	34
839.1576	33
885.4495	41
994.5284	30
