Mass spectrum: PARAXANTHINE; LC-ESI-QTOF; MS2; CE: 10;  [M-H]-
Name: PARAXANTHINE
Class: NA
Formula: C7H8N4O2
Exact mass: 180.06473
SMILES: CN1C=NC2=C1C(=O)N(C)C(=O)N2
InChI: InChI=1S/C7H8N4O2/c1-10-3-8-5-4(10)6(12)11(2)7(13)9-5/h3H,1-2H3,(H,9,13)
Instrument: Agilent 6530Â Q-TOF LC/MS
Instrument type: LC-ESI-QTOF
Ms type: MS2
Ion mode: NEGATIVE
Ionization: ESI
Collision energy: 10
Column name: NA
Retention time: 0.200 min
Base peak: 179.05797
Precursor m/z: 179.05797
Precursor type: [M-H]-
Precursor intensity: 104
m/z	relative intensity
42.0073	96
91.0012	123
94.0392	124
96.9644	145
108.0229	187
122.0521	250
122.5531	383
164.0472	554
179.0696	999
