Mass spectrum: γ-Isoalantolactone-Cysteine; LC-ESI-ITFT; MS2; CE: 50eV;  [M+H]+
Name: γ-Isoalantolactone-Cysteine
Class: Sesquiterpenelactone; Eudesmanolide
Formula: C18H27NO4S
Exact mass: 353.1661
SMILES: O=C(O)[C@@H](N)CSCC1C(=O)O[C@@H]2C[C@@]3(C)CCCC(C)=C3C[C@H]12
InChI: InChI=1S/C18H27NO4S/c1-10-4-3-5-18(2)7-15-11(6-13(10)18)12(17(22)23-15)8-24-9-14(19)16(20)21/h11-12,14-15H,3-9,19H2,1-2H3,(H,20,21)/t11-,12?,14+,15-,18-/m1/s1
Instrument: Q Exactive Plus, ThermoFisher Scientific
Instrument type: LC-ESI-ITFT
Ms type: MS2
Ion mode: POSITIVE
Ionization: ESI
Collision energy: 50eV
Column name: Acquity CSHC18
Retention time: 7.390 min
Base peak: 354.1726
Precursor m/z: 354.1726
Precursor type: [M+H]+
Precursor intensity: 1872760000
m/z	relative intensity
62.937	19
70.0094	112
81.0707	26
88.0402	206
93.07	44
95.0864	43
97.1019	28
105.0699	337
107.0863	259
109.1018	39
119.0859	50
122.0272	49
131.0861	46
151.0745	223
157.1016	53
159.1173	143
161.1332	768
163.0771	26
173.1329	23
183.0485	182
185.1333	100
186.7856	21
187.1468	266
189.1634	229
213.1269	25
215.1425	200
219.1199	347
221.1367	25
233.1549	271
247.1172	27
265.1261	999
290.158	24
308.1678	337
336.162	33
337.1462	51
351.8737	27
354.1762	953
