Mass spectrum: 15(R)-Prostaglandin E2; ESI-TOF; MS2; CE: 6.0000000;  [M+H]+
Name: 15(R)-Prostaglandin E2
Class: NA
Formula: C20H32O5
Exact mass: 352.22497
SMILES: O=C1[C@H](C/C=C\CCCC(O)=O)[C@@H](/C=C/[C@H](O)CCCCC)[C@H](O)C1
InChI: InChI=1S/C20H32O5/c1-2-3-6-9-15(21)12-13-17-16(18(22)14-19(17)23)10-7-4-5-8-11-20(24)25/h4,7,12-13,15-17,19,21,23H,2-3,5-6,8-11,14H2,1H3,(H,24,25)/b7-4-,13-12+/t15-,16-,17-,19-/m1/s1
Instrument: waters xevo g2 TOF
Instrument type: ESI-TOF
Ms type: MS2
Ion mode: POSITIVE
Ionization: ESI
Collision energy: 6.0000000
Column name: Acquity CSHC18
Retention time: 3.483 min
Base peak: 353.23297
Precursor m/z: 353.23297
Precursor type: [M+H]+
m/z	relative intensity
121.1017	4
129.0697	1
139.9606	3
147.0798	4
149.1135	6
161.0971	5
167.1065	10
171.1174	6
173.1324	10
187.1173	10
189.0902	20
201.1283	37
205.1201	4
207.0892	37
215.1423	49
217.126	3
227.1794	17
229.1954	31
233.1527	20
239.1747	6
245.1901	68
247.2049	38
248.2076	6
253.1948	13
254.2024	3
257.1884	51
263.1994	88
265.2153	100
271.2055	91
273.1836	57
274.1882	10
275.2002	31
276.2006	6
281.1904	136
282.1906	17
289.216	42
291.1943	64
299.2009	991
300.2037	226
301.2055	26
317.2114	999
318.2134	200
331.2202	13
335.2214	450
336.2252	77
354.1949	175
354.6961	61
