Mass spectrum: Dopamine; LC-ESI-ITFT; MS2; CE: 20;  [M+H]+
Name: Dopamine
Class: Benzenoids; Phenols; Benzenediols
Formula: C8H11NO2
Exact mass: 153.07898
SMILES: NCCC1=CC(O)=C(O)C=C1
InChI: InChI=1S/C8H11NO2/c9-4-3-6-1-2-7(10)8(11)5-6/h1-2,5,10-11H,3-4,9H2
Instrument: Thermo Scientific Q-Exactive Focus
Instrument type: LC-ESI-ITFT
Ms type: MS2
Ion mode: POSITIVE
Ionization: ESI
Collision energy: 20
Column name: Acquity CSHC18
Retention time: 0.630 min
Base peak: 154.08626
Precursor m/z: 154.08626
Precursor type: [M+H]+
m/z	relative intensity
65.0391	49
79.0546	8
81.0703	20
91.0546	999
109.065	26
113.504	2
119.0493	389
137.0597	382
166.7949	2
171.4071	2
