Mass spectrum: Gallic acid; LC-ESI-ITFT; MS2; CE: 10;  [M-H]-
Name: Gallic acid
Class: Benzenoids; Benzene and substituted derivatives; Benzoic acids and derivatives
Formula: C7H6O5
Exact mass: 170.02152
SMILES: OC(=O)C1=CC(O)=C(O)C(O)=C1
InChI: InChI=1S/C7H6O5/c8-4-1-3(7(11)12)2-5(9)6(4)10/h1-2,8-10H,(H,11,12)
Instrument: Thermo Scientific Q-Exactive Focus
Instrument type: LC-ESI-ITFT
Ms type: MS2
Ion mode: NEGATIVE
Ionization: ESI
Collision energy: 10
Column name: Acquity CSHC18
Retention time: 0.360 min
Base peak: 169.01425
Precursor m/z: 169.01425
Precursor type: [M-H]-
m/z	relative intensity
56.8573	1
69.0334	11
81.0333	7
92.515	2
97.0282	10
124.0155	2
125.0233	999
140.0729	1
169.0133	707
179.1557	1
