Mass spectrum: Gamma-Aminobutyric acid; ESI-TOF; MS2; CE: 0.6458333;  [M+H]+
Name: Gamma-Aminobutyric acid
Class: NA
Formula: C4H9NO2
Exact mass: 103.06333
SMILES: NCCCC(O)=O
InChI: InChI=1S/C4H9NO2/c5-3-1-2-4(6)7/h1-3,5H2,(H,6,7)
Instrument: waters xevo g2 TOF
Instrument type: ESI-TOF
Ms type: MS2
Ion mode: POSITIVE
Ionization: ESI
Collision energy: 0.6458333
Column name: Acquity CSHC18
Retention time: 0.493 min
Base peak: 104.07133
Precursor m/z: 104.07133
Precursor type: [M+H]+
m/z	relative intensity
78.9967	15
87.0449	1
91.9584	8
96.9619	1
97.9695	999
104.0713	1
104.9481	9
111.9691	12
128.8745	10
129.9809	1
130.9864	31
140.9631	1
142.9649	13
148.0361	11
149.9611	1
164.9547	1
170.0141	45
172.0963	1
180.9652	89
180.9963	1
191.9419	1
205.9898	1
209.0113	67
214.0414	11
235.8748	1
242.0366	32
243.8804	1
245.0808	1
248.8674	1
249.8848	1
258.0542	1
260.0453	32
261.0532	1
266.0425	1
282.0284	1
283.0341	24
304.011	20
318.791	12
363.11	1
385.0882	1
401.0521	1
408.7867	1
420.0317	1
510.1393	1
543.0785	9
