Mass spectrum: BETA-GLYCEROPHOSPHATE; LC-ESI-QFT; MS2; CE: 30eV;  [M+H]+
Name: BETA-GLYCEROPHOSPHATE
Class: NA
Formula: C3H9O6P
Exact mass: 172.01367
SMILES: OCC(CO)OP(O)(O)=O
InChI: InChI=1S/C3H9O6P/c4-1-3(2-5)9-10(6,7)8/h3-5H,1-2H2,(H2,6,7,8)
Instrument: Q-Exactive Orbitrap, Thermo Scientfic; Ultimate 3000 HPLC, Thermo Scientfic
Instrument type: LC-ESI-QFT
Ms type: MS2
Ion mode: POSITIVE
Ionization: ESI
Collision energy: 30eV
Column name: Acquity CSHC18
Retention time: 0.567 min
Base peak: 173.0210
Precursor m/z: 173.0210
Precursor type: [M+H]+
Precursor intensity: 136
m/z	relative intensity
57.0344	14
61.4114	1
71.1174	1
75.0449	8
76.2815	1
77.9972	1
79.7197	1
88.9607	1
89.9406	1
90.9039	1
90.9485	6
91.4731	1
92.9673	5
98.9849	999
103.9567	1
106.1661	1
107.9511	4
110.9778	4
111.9851	1
112.1472	1
113.9645	2
114.9722	7
116.9954	23
117.9594	1
119.9514	1
125.9614	9
126.962	1
126.9724	9
128.9883	1
129.9593	1
130.967	14
131.9304	7
131.9515	7
131.9749	1
144.9831	6
148.9776	39
149.941	21
149.9619	19
149.9807	5
154.9675	1
155.9749	2
157.1104	1
167.9726	8
172.1336	1
172.9781	7
173.0216	12
173.08	1
