Mass spectrum: 2,4-Quinolinediol; LC-ESI-ITFT; MS2; CE: 0.3;  [M-H]-
Name: 2,4-Quinolinediol
Class: alkaloids
Formula: C9H7NO2
Exact mass: 161.0477
SMILES: C1=CC=C2C(=C1)C(=CC(=O)N2)O
InChI: InChI=1S/C9H7NO2/c11-8-5-9(12)10-7-4-2-1-3-6(7)8/h1-5H,(H2,10,11,12)
Instrument: LTQ-Orbitrap XL hybrid mass spectrometer (Thermo Scientific)
Instrument type: LC-ESI-ITFT
Ms type: MS2
Ion mode: NEGATIVE
Ionization: ESI
Collision energy: 0.3
Column name: Acquity CSHC18
Retention time: 5.366 min
Base peak: 160.0408
Precursor m/z: 160.0408
Precursor type: [M-H]-
Precursor intensity: 2328384
m/z	relative intensity
50.6501	630
50.6968	559
50.8967	491
51.2941	700
51.6813	410
52.0036	670
52.0129	549
52.6355	587
52.6973	600
53.3886	528
53.4404	534
53.4962	538
53.5473	434
54.2257	492
54.2407	681
54.3081	463
54.3998	569
54.4976	667
54.6828	578
54.6868	436
54.7216	576
54.7283	652
54.7507	562
55.2122	627
55.6217	579
63.5715	549
64.5059	491
71.781	999
79.3982	594
81.0538	942
85.1376	501
86.1971	539
96.5156	595
102.648	534
105.5865	479
115.9897	696
