Mass spectrum: Adenosine 5'-monophosphate; LC-ESI-QTOF; MS2; CE: 33.90;  [2M+H]+
Name: Adenosine 5'-monophosphate
Class: NA
Formula: C10H14N5O7P
Exact mass: 347.0631
SMILES: C1=NC(=C2C(=N1)N(C=N2)C3C(C(C(O3)COP(=O)(O)O)O)O)N
InChI: InChI=1S/C10H14N5O7P/c11-8-5-9(13-2-12-8)15(3-14-5)10-7(17)6(16)4(22-10)1-21-23(18,19)20/h2-4,6-7,10,16-17H,1H2,(H2,11,12,13)(H2,18,19,20)
Instrument: Bruker MicrOTOF-Q
Instrument type: LC-ESI-QTOF
Ms type: MS2
Ion mode: POSITIVE
Ionization: ESI
Collision energy: 33.90
Column name: Acquity CSHC18
Retention time: NA
Base peak: 695.1334
Precursor m/z: 695.1334
Precursor type: [2M+H]+
m/z	relative intensity
91.61	1
97.03	4
119.03	3
130.45	1
135.36	1
135.52	1
136.06	999
136.24	3
136.33	3
136.41	3
136.5	2
136.61	2
136.74	1
136.79	1
137.06	75
137.37	1
137.49	1
138.06	4
139.55	1
139.62	1
139.66	1
139.73	2
178.07	1
232.09	1
248.69	1
250.09	16
250.2	1
251.09	2
268.1	1
269.11	1
330.05	1
345.08	1
346.38	1
346.47	1
347.65	2
347.86	3
348.07	682
348.27	2
348.35	3
348.48	2
348.59	1
348.68	3
348.83	1
349.07	99
349.35	2
349.47	1
350.07	19
350.35	1
351.16	1
367.44	1
376.4	1
392.2	1
458.58	1
571.54	1
