Mass spectrum: GLUCOSAMINE 6-SULFATE; LC-ESI-QTOF; MS2; CE: 20;  [M-H]-
Name: GLUCOSAMINE 6-SULFATE
Class: NA
Formula: C6H13NO8S
Exact mass: 259.03619
SMILES: N[C@H]1[C@H](O)O[C@H](COS(O)(=O)=O)[C@@H](O)[C@@H]1O
InChI: InChI=1S/C6H13NO8S/c7-3-5(9)4(8)2(15-6(3)10)1-14-16(11,12)13/h2-6,8-10H,1,7H2,(H,11,12,13)/t2-,3-,4-,5-,6-/m1/s1
Instrument: Agilent 6530Â Q-TOF LC/MS
Instrument type: LC-ESI-QTOF
Ms type: MS2
Ion mode: NEGATIVE
Ionization: ESI
Collision energy: 20
Column name: NA
Retention time: 0.200 min
Base peak: 258.03060
Precursor m/z: 258.03060
Precursor type: [M-H]-
Precursor intensity: 151
m/z	relative intensity
59.0153	173
79.9644	252
80.9701	268
96.9754	284
138.9878	586
199.009	839
258.0318	999
