Mass spectrum: ADENOSINE 5'-DIPHOSPHATE; LC-ESI-QTOF; MS2; CE: 10;  [M-H]-
Name: ADENOSINE 5'-DIPHOSPHATE
Class: NA
Formula: C10H15N5O10P2
Exact mass: 427.02941
SMILES: NC1=NC=NC2=C1N=CN2[C@@H]1O[C@H](COP(O)(=O)OP(O)(O)=O)[C@@H](O)[C@H]1O
InChI: InChI=1S/C10H15N5O10P2/c11-8-5-9(13-2-12-8)15(3-14-5)10-7(17)6(16)4(24-10)1-23-27(21,22)25-26(18,19)20/h2-4,6-7,10,16-17H,1H2,(H,21,22)(H2,11,12,13)(H2,18,19,20)/t4-,6-,7-,10-/m1/s1
Instrument: Agilent 6530Â Q-TOF LC/MS
Instrument type: LC-ESI-QTOF
Ms type: MS2
Ion mode: NEGATIVE
Ionization: ESI
Collision energy: 10
Column name: NA
Retention time: 0.200 min
Base peak: 426.02627
Precursor m/z: 426.02627
Precursor type: [M-H]-
Precursor intensity: 141
m/z	relative intensity
78.9648	170
134.0517	226
158.9369	252
328.0595	264
408.0262	306
426.0659	999
