Mass spectrum: 5-Methoxytryptophol; LC-ESI-ITFT; MS2; CE: 100;  [M+H]+
Name: 5-Methoxytryptophol
Class: Organoheterocyclic compounds; Indoles and derivatives; Indoles
Formula: C11H13NO2
Exact mass: 191.09463
SMILES: COC1=CC=C2NC=C(CCO)C2=C1
InChI: InChI=1S/C11H13NO2/c1-14-9-2-3-11-10(6-9)8(4-5-13)7-12-11/h2-3,6-7,12-13H,4-5H2,1H3
Instrument: Thermo Scientific Q-Exactive Focus
Instrument type: LC-ESI-ITFT
Ms type: MS2
Ion mode: POSITIVE
Ionization: ESI
Collision energy: 100
Column name: Acquity CSHC18
Retention time: NA
Base peak: 192.10191
Precursor m/z: 192.10191
Precursor type: [M+H]+
m/z	relative intensity
50.0157	557
51.0236	999
53.0028	115
62.0156	215
63.0235	581
65.0391	167
75.0234	143
77.039	119
89.039	594
95.0495	202
