Mass spectrum: Maleic acid; LC-ESI-QTOF; MS2; CE: 15 / 50;  [M-H]-
Name: Maleic acid
Class: NA
Formula: C4H4O4
Exact mass: 116.0110
SMILES: C(=CC(=O)O)C(=O)O
InChI: InChI=1S/C4H4O4/c5-3(6)1-2-4(7)8/h1-2H,(H,5,6)(H,7,8)
Instrument: impact II
Instrument type: LC-ESI-QTOF
Ms type: MS2
Ion mode: NEGATIVE
Ionization: ESI
Collision energy: 15 / 50
Column name: Acquity CSHC18
Retention time: 0.678 min
Base peak: 115.0038
Precursor m/z: 115.0038
Precursor type: [M-H]-
m/z	relative intensity
71.0149	999
72.0186	101
115.0033	413
116.0066	35
