Mass spectrum: Carnosine; LC-ESI-ITFT; MS2; CE: 10;  [M-H]-
Name: Carnosine
Class: Organic acids and derivatives; Peptidomimetics; Hybrid peptides
Formula: C9H14N4O3
Exact mass: 226.10659
SMILES: NCCC(=O)N[C@@H](CC1=CN=CN1)C(O)=O
InChI: InChI=1S/C9H14N4O3/c10-2-1-8(14)13-7(9(15)16)3-6-4-11-5-12-6/h4-5,7H,1-3,10H2,(H,11,12)(H,13,14)(H,15,16)/t7-/m0/s1
Instrument: Thermo Scientific Q-Exactive Focus
Instrument type: LC-ESI-ITFT
Ms type: MS2
Ion mode: NEGATIVE
Ionization: ESI
Collision energy: 10
Column name: Acquity CSHC18
Retention time: 0.361 min
Base peak: 225.09930
Precursor m/z: 225.09930
Precursor type: [M-H]-
m/z	relative intensity
88.0392	67
110.0713	280
154.0612	599
161.0823	22
163.0981	64
181.1087	60
207.0883	22
224.8031	25
225.0072	75
225.099	999
