Mass spectrum: Tomatidine-O,N-diacetat; APCI-ITFT; MS2; CE: 35 CID;  [M]+
Name: Tomatidine-O,N-diacetat
Class: NA
Formula: [C31H50NO4]+
Exact mass: 500.37344
SMILES: CC(N1CC(C)CCC([O+]2C(C)=O)1C(C)C3C2CC4C3(C)CCC5C4CCC6C5(C)CCC(O)C6)=O
InChI: InChI=1S/C31H50NO4/c1-18-9-14-31(32(17-18)20(3)33)19(2)28-27(36(31)21(4)34)16-26-24-8-7-22-15-23(35)10-12-29(22,5)25(24)11-13-30(26,28)6/h18-19,22-28,35H,7-17H2,1-6H3/q+1
Instrument: Orbitrap Elite
Instrument type: APCI-ITFT
Ms type: MS2
Ion mode: POSITIVE
Ionization: APCI
Collision energy: 35 CID
Column name: Acquity CSHC18
Retention time: 0.095 min
Base peak: 500.37305
Precursor m/z: 500.37305
Precursor type: [M]+
Precursor intensity: 1495895000
m/z	relative intensity
255.211	999
293.9654	21
366.1445	17
