Mass spectrum: Luteolin; LC-ESI-QFT; MS2; CE: 15,30,45 (NCE);  [M+H]+
Name: Luteolin
Class: NA
Formula: C15H10O6
Exact mass: 286.0477
SMILES: OC1=CC(O)=C2C(=O)C=C(OC2=C1)C1=CC(O)=C(O)C=C1
InChI: InChI=1S/C15H10O6/c16-8-4-11(19)15-12(20)6-13(21-14(15)5-8)7-1-2-9(17)10(18)3-7/h1-6,16-19H
Instrument: QE Focus, Thermo Scientfic; UPLC I-Class, Waters
Instrument type: LC-ESI-QFT
Ms type: MS2
Ion mode: POSITIVE
Ionization: ESI
Collision energy: 15,30,45 (NCE)
Column name: Acquity CSHC18
Retention time: 2.101 min
Base peak: 287.0554
Precursor m/z: 287.0554
Precursor type: [M+H]+
Precursor intensity: 215626000
m/z	relative intensity
67.0188	1
68.9981	2
135.044	7
137.0236	3
153.0185	28
161.0231	2
171.0293	1
179.0361	1
241.0503	1
287.0553	999
