Mass spectrum: Geranyl-PP; LC-ESI-QTOF; MS2; CE: 10;  [M-H]-
Name: Geranyl-PP
Class: Isoprenoid phosphates
Formula: C10H20O7P2
Exact mass: 314.0684
SMILES: CC(C)=CCC\C(C)=C\COP(O)(=O)OP(O)(O)=O
InChI: InChI=1S/C10H20O7P2/c1-9(2)5-4-6-10(3)7-8-16-19(14,15)17-18(11,12)13/h5,7H,4,6,8H2,1-3H3,(H,14,15)(H2,11,12,13)/b10-7+
Instrument: impact II
Instrument type: LC-ESI-QTOF
Ms type: MS2
Ion mode: NEGATIVE
Ionization: ESI
Collision energy: 10
Column name: Acquity CSHC18
Retention time: 1.831 min
Base peak: 313.0569
Precursor m/z: 313.0569
Precursor type: [M-H]-
m/z	relative intensity
78.9596	999
158.9243	200
295.0466	154
313.0565	816
314.06	173
