Mass spectrum: 7?-hydroxycholesterol; ESI-TOF; MS2; CE: 6.0000000;  [M+H]+
Name: 7?-hydroxycholesterol
Class: NA
Formula: C27H46O2
Exact mass: 402.34978
SMILES: [H]OC2([H])(C([H])=C1C([H])([H])C([H])(O[H])C([H])([H])C([H])([H])C1(C([H])([H])[H])C3([H])(C([H])([H])C([H])([H])C4(C([H])([H])[H])(C([H])(C([H])([H])C([H])([H])C4([H])(C23([H])))C([H])(C([H])([H])[H])C([H])([H])C([H])([H])C([H])([H])C([H])(C([H])([H])[H])C([H])([H])[H])))
InChI: InChI=1S/C27H46O2/c1-17(2)7-6-8-18(3)21-9-10-22-25-23(12-14-27(21,22)5)26(4)13-11-20(28)15-19(26)16-24(25)29/h16-18,20-25,28-29H,6-15H2,1-5H3
Instrument: waters xevo g2 TOF
Instrument type: ESI-TOF
Ms type: MS2
Ion mode: POSITIVE
Ionization: ESI
Collision energy: 6.0000000
Column name: Acquity CSHC18
Retention time: 9.568 min
Base peak: 403.35778
Precursor m/z: 403.35778
Precursor type: [M+H]+
m/z	relative intensity
95.0856	1
133.1017	20
145.1018	32
147.1174	12
157.1019	4
159.1171	36
160.1209	2
165.1642	1
177.1282	3
182.6298	5
187.1488	5
193.1949	4
199.1487	5
201.1647	3
207.2095	2
213.1647	6
219.2123	9
227.1802	7
233.2273	4
241.1955	17
247.2429	16
255.211	9
259.2431	5
261.2593	9
267.2699	2
301.2872	4
324.2307	13
339.1991	5
367.337	999
368.3404	311
369.2322	5
382.225	4
383.3323	31
384.3371	9
385.347	347
386.3515	106
