Mass spectrum: kaempferol 3-O-sophoroside; LC-ESI-ITFT; MS2; CE: 0.3;  [M+H]+
Name: kaempferol 3-O-sophoroside
Class: flavonol glycosides
Formula: C27H30O16
Exact mass: 610.1534
SMILES: C1=CC(=CC=C1C2=C(C(=O)C3=C(C=C(C=C3O2)O)O)OC4C(C(C(C(O4)CO)O)O)OC5C(C(C(C(O5)CO)O)O)O)O
InChI: InChI=1S/C27H30O16/c28-7-14-17(33)20(36)22(38)26(40-14)43-25-21(37)18(34)15(8-29)41-27(25)42-24-19(35)16-12(32)5-11(31)6-13(16)39-23(24)9-1-3-10(30)4-2-9/h1-6,14-15,17-18,20-22,25-34,36-38H,7-8H2
Instrument: LTQ-Orbitrap XL hybrid mass spectrometer (Thermo Scientific)
Instrument type: LC-ESI-ITFT
Ms type: MS2
Ion mode: POSITIVE
Ionization: ESI
Collision energy: 0.3
Column name: Acquity CSHC18
Retention time: 4.804 min
Base peak: 611.1579
Precursor m/z: 611.1579
Precursor type: [M+H]+
Precursor intensity: 6735843
m/z	relative intensity
159.9962	10
162.3346	11
166.9786	19
167.8128	9
174.2639	11
177.542	12
179.1891	11
181.0417	10
182.7916	9
183.0002	11
185.4226	10
190.2824	12
190.2945	11
196.2262	11
207.5799	13
209.1756	13
220.5472	12
227.5015	13
247.0755	12
248.3889	13
255.9819	12
256.7801	13
260.1853	15
261.5984	14
267.3495	12
272.3318	12
275.4275	14
281.087	14
282.8697	13
287.054	999
291.4944	15
306.5183	17
316.8768	12
318.6673	11
319.9572	15
320.2106	13
321.1289	13
326.1266	15
329.0655	41
332.8481	17
345.967	16
355.0642	17
356.0646	22
360.8089	14
368.8964	14
373.2094	19
374.1688	13
378.6294	16
382.664	14
385.0666	17
387.3471	16
390.41	16
395.7785	13
400.3057	15
404.1774	16
404.8493	17
409.0312	16
411.9563	13
426.4776	14
427.6987	15
429.6214	15
429.8805	15
430.4654	15
431.0932	74
434.6486	14
435.6724	20
438.2248	14
443.9229	17
449.1057	679
449.7103	14
457.0548	15
457.7459	18
461.154	18
461.8559	16
466.5802	23
473.7862	16
484.2133	14
484.265	14
484.826	17
495.4094	16
505.4574	16
512.0784	16
518.038	18
521.4603	14
530.5883	16
532.016	18
537.6542	15
539.9021	16
542.6937	14
543.1403	15
545.2321	17
555.3058	23
557.5059	16
558.6694	16
564.6251	19
566.4696	16
576.8863	16
591.4999	16
591.6175	16
602.6864	18
602.7817	20
607.4056	20
609.915	17
