Mass spectrum: 3-Caffeoyl quinic acid; LC-ESI-ITFT; MS2; CE: 35eV;  [M+H]+
Name: 3-Caffeoyl quinic acid
Class: Hydroxycinnamic ester
Formula: C16H18O9
Exact mass: 354.0951
SMILES: C1C(C(C(CC1(C(=O)O)O)OC(=O)C=CC2=CC(=C(C=C2)O)O)O)O
InChI: InChI=1S/C16H18O9/c17-9-3-1-8(5-10(9)18)2-4-13(20)25-12-7-16(24,15(22)23)6-11(19)14(12)21/h1-5,11-12,14,17-19,21,24H,6-7H2,(H,22,23)
Instrument: LTQ Orbitrap XL, Thermo Scientfic; Dionex Ultimate 300
Instrument type: LC-ESI-ITFT
Ms type: MS2
Ion mode: POSITIVE
Ionization: ESI
Collision energy: 35eV
Column name: Lichrospher C18 Column 250*4 5um, Interchim
Retention time: 17.26 min
Base peak: 355.1012
Precursor m/z: 355.1012
Precursor type: [M+H]+
m/z	relative intensity
106.9303	1
112.9579	4
114.0139	1
116.9452	10
130.8275	5
134.9326	12
144.9104	46
156.9511	2
162.9101	999
163.741	1
174.3448	4
174.9746	8
175.9698	2
181.0154	1
192.9326	1
266.9818	1
271.1019	13
291.0447	1
294.1261	2
301.0591	3
309.0448	1
310.2203	1
311.1322	1
319.093	4
323.0931	1
