Mass spectrum: Pantothenic acid; LC-ESI-ITFT; MS2; CE: 60;  [M-H]-
Name: Pantothenic acid
Class: Organooxygen compounds; Alcohols and polyols; Polyols
Formula: C9H17NO5
Exact mass: 219.11067
SMILES: CC(C)(CO)[C@@H](O)C(=O)NCCC(O)=O
InChI: InChI=1S/C9H17NO5/c1-9(2,5-11)7(14)8(15)10-4-3-6(12)13/h7,11,14H,3-5H2,1-2H3,(H,10,15)(H,12,13)/t7-/m0/s1
Instrument: Thermo Scientific Q-Exactive Focus
Instrument type: LC-ESI-ITFT
Ms type: MS2
Ion mode: NEGATIVE
Ionization: ESI
Collision energy: 60
Column name: Acquity CSHC18
Retention time: 2.026 min
Base peak: 218.10339
Precursor m/z: 218.10339
Precursor type: [M-H]-
m/z	relative intensity
71.049	999
92.5148	167
121.9672	171
134.8934	175
137.1539	189
138.7567	161
157.0735	174
181.6225	165
186.5156	176
200.1106	190
