Mass spectrum: Kaempferol.Glc.Rha.Rha; LC-ESI-ITFT; MS2; CE: 30;  [M+H]+
Name: Kaempferol.Glc.Rha.Rha
Class: NA
Formula: C33H40O20
Exact mass: 756.2113
SMILES: c1(cc(c2c(c1)oc(c(c2=O)O[C@H]1[C@@H]([C@H]([C@@H]([C@H](O1)CO[C@H]1[C@@H]([C@H]([C@@H]([C@H](O1)CO)O)O)O)O)O)O)c1ccc(cc1)O)O)O[C@H]1[C@@H]([C@H]([C@H]([C@@H](O1)C)O)O)O
InChI: InChI=1S/C33H40O20/c1-10-19(37)23(41)27(45)32(48-10)49-13-6-14(36)18-15(7-13)50-29(11-2-4-12(35)5-3-11)30(22(18)40)53-33-28(46)25(43)21(39)17(52-33)9-47-31-26(44)24(42)20(38)16(8-34)51-31/h2-7,10,16-17,19-21,23-28,31-39,41-46H,8-9H2,1H3/t10-,16+,17+,19-,20+,21+,23-,24-,25-,26+,27+,28+,31+,32-,33-/m0/s1
Instrument: q exactive focus thermo
Instrument type: LC-ESI-ITFT
Ms type: MS2
Ion mode: POSITIVE
Ionization: ESI
Collision energy: 30
Column name: Acquity CSHC18
Retention time: 5.622 min
Base peak: 757.2193
Precursor m/z: 757.2193
Precursor type: [M+H]+
Precursor intensity: 813188.3
m/z	relative intensity
102.9596	55
107.0618	81
107.9771	89
109.0197	93
116.0842	95
119.0675	104
122.065	115
123.0986	117
131.0653	144
135.9791	183
149.0631	298
152.0311	379
157.0088	483
175.0019	599
235.0036	737
253.8749	791
301.0887	999
