Mass spectrum: Prostaglandin E2-biotin; ESI-TOF; MS2; CE: 6.0000000;  [M+H]+
Name: Prostaglandin E2-biotin
Class: NA
Formula: C35H58N4O6S
Exact mass: 662.40771
SMILES: [H][C@]12[C@](N([H])C(N2[H])=O)([H])CS[C@@H]1CCCCC(NCCCCCN([H])C(CCC/C=C\C[C@H]3C(C[C@@H](O)[C@@H]3/C=C/[C@@H](O)CCCCC)=O)=O)=O
InChI: InChI=1S/C35H58N4O6S/c1-2-3-7-14-25(40)19-20-27-26(29(41)23-30(27)42)15-8-4-5-9-17-32(43)36-21-12-6-13-22-37-33(44)18-11-10-16-31-34-28(24-46-31)38-35(45)39-34/h4,8,19-20,25-28,30-31,34,40,42H,2-3,5-7,9-18,21-24H2,1H3,(H,36,43)(H,37,44)(H2,38,39,45)/b8-4-,20-19+/t25-,26+,27+,28-,30+,31+,34-/m0/s1
Instrument: waters xevo g2 TOF
Instrument type: ESI-TOF
Ms type: MS2
Ion mode: POSITIVE
Ionization: ESI
Collision energy: 6.0000000
Column name: Acquity CSHC18
Retention time: 3.435 min
Base peak: 663.41571
Precursor m/z: 663.41571
Precursor type: [M+H]+
m/z	relative intensity
158.1543	20
178.9486	5
246.0898	2
246.5951	9
278.0588	4
287.6936	6
288.1991	4
301.1084	9
314.1998	24
314.6583	26
315.1632	41
322.1233	2
323.1624	46
323.6246	18
329.1999	13
341.6633	4
342.1733	14
348.1647	5
348.662	3
349.6623	25
350.1656	136
350.6669	35
351.183	433
351.6844	165
352.6891	3
358.6774	2
359.1713	16
359.6731	5
376.6193	2
645.4037	431
646.4068	174
647.4064	43
648.4042	10
663.4139	999
664.4167	424
