Mass spectrum: 7,8-Dihydroxy-6-methoxycoumarin; LC-ESI-QTOF; MS2; CE: 15.00;  [M+H]+
Name: 7,8-Dihydroxy-6-methoxycoumarin
Class: NA
Formula: C10H8O5
Exact mass: 208.0372
SMILES: COC1=C(C(=C2C(=C1)C=CC(=O)O2)O)O
InChI: InChI=1S/C10H8O5/c1-14-6-4-5-2-3-7(11)15-10(5)9(13)8(6)12/h2-4,12-13H,1H3
Instrument: Bruker MicrOTOF-Q
Instrument type: LC-ESI-QTOF
Ms type: MS2
Ion mode: POSITIVE
Ionization: ESI
Collision energy: 15.00
Column name: Acquity CSHC18
Retention time: NA
Base peak: 209.0444
Precursor m/z: 209.0444
Precursor type: [M+H]+
m/z	relative intensity
121.0273	6
135.044	31
136.0478	2
138.0308	7
149.0238	142
150.0277	13
153.055	50
154.0573	4
159.0088	2
163.0392	117
164.042	11
165.0538	11
166.0264	51
167.0296	4
177.018	25
178.0228	2
181.0495	69
182.0527	6
191.0343	2
193.0129	1
194.0211	387
195.0249	30
208.9311	2
209.0446	999
209.3862	1
210.048	96
211.0504	2
