Mass spectrum: ANSERINE; LC-ESI-QTOF; MS2; CE: 20;  [M+H]+
Name: ANSERINE
Class: NA
Formula: C10H16N4O3
Exact mass: 240.12224
SMILES: CN1C=NC=C1C[C@H](NC(=O)CCN)C(O)=O
InChI: InChI=1S/C10H16N4O3/c1-14-6-12-5-7(14)4-8(10(16)17)13-9(15)2-3-11/h5-6,8H,2-4,11H2,1H3,(H,13,15)(H,16,17)/t8-/m0/s1
Instrument: Agilent 6530Â Q-TOF LC/MS
Instrument type: LC-ESI-QTOF
Ms type: MS2
Ion mode: POSITIVE
Ionization: ESI
Collision energy: 20
Column name: NA
Retention time: 0.200 min
Base peak: 241.12965
Precursor m/z: 241.12965
Precursor type: [M+H]+
Precursor intensity: 70.5
m/z	relative intensity
41.0472	20
44.0543	20
54.0331	21
55.0404	21
56.057	21
58.0722	22
59.0745	22
66.0388	22
67.0463	22
68.0732	23
70.0617	23
72.0569	23
81.0592	23
82.0762	23
83.0788	25
84.0401	25
85.0836	25
89.0729	25
90.0546	26
95.0942	26
96.1028	27
96.2405	27
96.3717	28
97.1083	30
107.074	35
108.0667	35
109.4901	36
110.1028	36
111.0691	37
112.0588	37
115.0913	40
121.0788	43
122.0805	43
123.083	45
124.1184	46
125.0844	47
126.1443	47
126.5059	48
126.8307	50
127.4945	53
133.0861	53
135.087	54
136.098	57
138.1079	57
148.0919	62
149.0979	65
150.1355	65
151.092	72
152.0799	75
153.11	84
153.3015	85
153.5358	98
156.0779	110
162.1137	116
166.0929	121
168.1489	159
170.1916	162
170.6814	171
170.805	192
178.1095	195
179.1474	200
180.1498	274
194.1144	334
195.1298	391
197.1645	413
212.1287	419
215.4808	552
223.1189	715
224.1302	741
241.178	999
