Mass spectrum: Agmatine; LC-ESI-ITFT; MS2; CE: 10;  [M+H]+
Name: Agmatine
Class: Organic nitrogen compounds; Organonitrogen compounds; Guanidines
Formula: C5H14N4
Exact mass: 130.12185
SMILES: NCCCCNC(N)=N
InChI: InChI=1S/C5H14N4/c6-3-1-2-4-9-5(7)8/h1-4,6H2,(H4,7,8,9)
Instrument: Thermo Scientific Q-Exactive Focus
Instrument type: LC-ESI-ITFT
Ms type: MS2
Ion mode: POSITIVE
Ionization: ESI
Collision energy: 10
Column name: Acquity CSHC18
Retention time: 0.216 min
Base peak: 131.12912
Precursor m/z: 131.12912
Precursor type: [M+H]+
m/z	relative intensity
60.0561	387
72.0812	999
84.9554	4
87.0043	13
96.0095	6
97.0098	3
97.0762	54
98.5122	3
114.1026	352
131.129	229
