Mass spectrum: Trehalose; LC-ESI-QTOF; MS2; CE: 16.88;  [M-H2O+H]+
Name: Trehalose
Class: NA
Formula: C12H22O11
Exact mass: 342.1162
SMILES: C(C1C(C(C(C(O1)OC2C(C(C(C(O2)CO)O)O)O)O)O)O)O
InChI: InChI=1S/C12H22O11/c13-1-3-5(15)7(17)9(19)11(21-3)23-12-10(20)8(18)6(16)4(2-14)22-12/h3-20H,1-2H2
Instrument: Bruker MicrOTOF-Q
Instrument type: LC-ESI-QTOF
Ms type: MS2
Ion mode: POSITIVE
Ionization: ESI
Collision energy: 16.88
Column name: Acquity CSHC18
Retention time: NA
Base peak: 325.1129
Precursor m/z: 325.1129
Precursor type: [M-H2O+H]+
m/z	relative intensity
70.2858	11
84.9847	10
85.0213	59
86.0487	10
97.0242	237
98.0349	14
99.0433	56
106.4202	9
109.0267	274
110.0295	22
111.5171	10
115.039	320
126.4252	8
126.9354	9
127.0386	935
128.041	44
129.0363	9
132.5234	11
145.0485	999
146.0507	82
163.0626	133
164.0635	28
187.0498	12
223.0669	12
229.0719	15
241.0689	17
242.0943	7
300.8336	11
343.6746	10
