Mass spectrum: sulfuretin; LC-ESI-ITFT; MS2; CE: 0.3;  [M-H]-
Name: sulfuretin
Class: flavonoids
Formula: C15H10O5
Exact mass: 270.0528
SMILES: C1=CC(=C(C=C1C=C2C(=O)C3=C(O2)C=C(C=C3)O)O)O
InChI: InChI=1S/C15H10O5/c16-9-2-3-10-13(7-9)20-14(15(10)19)6-8-1-4-11(17)12(18)5-8/h1-7,16-18H
Instrument: LTQ-Orbitrap XL hybrid mass spectrometer (Thermo Scientific)
Instrument type: LC-ESI-ITFT
Ms type: MS2
Ion mode: NEGATIVE
Ionization: ESI
Collision energy: 0.3
Column name: Acquity CSHC18
Retention time: 6.984 min
Base peak: 269.0453
Precursor m/z: 269.0453
Precursor type: [M-H]-
Precursor intensity: 16747390
m/z	relative intensity
69.4626	2
70.4201	2
77.4267	2
77.5998	2
81.444	2
85.1968	2
91.0196	5
96.3061	2
96.3124	3
102.2715	2
105.2485	2
115.3134	2
122.5771	2
130.7669	2
133.0299	76
135.0092	91
144.1339	2
144.9559	2
146.2295	2
147.2783	2
149.1608	2
158.7938	3
166.9882	5
169.066	5
174.7396	2
181.0673	6
183.0461	3
190.8999	2
195.0425	4
196.0545	4
197.061	30
199.0401	11
201.0558	47
208.0514	3
210.0322	2
213.0555	9
224.0479	23
225.0558	150
226.0276	18
227.0348	88
241.0508	63
250.56	2
251.0352	22
268.9995	6
269.0118	6
269.0454	999
