Mass spectrum: 1-C16-2-C1 DG; ESI-TOF; MS2; CE: 0.6458333;  [M+H]+
Name: 1-C16-2-C1 DG
Class: NA
Formula: C20H42O3
Exact mass: 330.31340
SMILES: [H]OC([H])([H])C([H])(OC([H])([H])[H])C([H])([H])OC([H])([H])C([H])([H])C([H])([H])C([H])([H])C([H])([H])C([H])([H])C([H])([H])C([H])([H])C([H])([H])C([H])([H])C([H])([H])C([H])([H])C([H])([H])C([H])([H])C([H])([H])C([H])([H])[H]
InChI: InChI=1S/C20H42O3/c1-3-4-5-6-7-8-9-10-11-12-13-14-15-16-17-23-19-20(18-21)22-2/h20-21H,3-19H2,1-2H3
Instrument: waters xevo g2 TOF
Instrument type: ESI-TOF
Ms type: MS2
Ion mode: POSITIVE
Ionization: ESI
Collision energy: 0.6458333
Column name: Acquity CSHC18
Retention time: 8.121 min
Base peak: 331.32140
Precursor m/z: 331.32140
Precursor type: [M+H]+
m/z	relative intensity
57.071	14
69.0704	3
71.0863	55
75.0448	10
83.0864	4
85.1021	67
89.0605	17
97.1021	7
107.0707	19
111.1175	3
115.007	24
126.0439	15
145.0178	179
146.021	6
156.0249	4
162.9907	28
164.986	10
185.1381	225
185.6399	49
186.1405	5
187.1341	4
194.1438	4
205.037	28
207.0321	16
219.0529	28
221.0484	12
233.0683	15
235.0676	4
238.1701	105
238.6714	29
251.0805	22
279.2004	34
281.2156	377
282.2187	69
285.2074	3
295.1944	5
296.1807	6
297.1871	11
337.3289	34
338.3328	2
342.3053	14
342.8063	6
343.3076	2
350.2948	999
350.8227	230
351.2975	123
351.7983	26
352.2921	25
353.303	404
354.3064	184
355.3082	26
358.2809	12
359.2816	15
359.7824	6
360.2797	11
369.2695	159
370.2717	33
371.2739	10
375.2843	2
383.2341	7
384.2381	14
385.24	128
386.2438	33
387.243	9
399.2942	3
405.2438	6
415.2728	230
416.2751	22
417.2761	8
423.2149	5
426.2432	3
427.2486	1
431.2449	6
432.2534	6
433.2478	3
469.1909	6
475.327	10
487.2004	5
491.2999	5
493.3019	8
495.301	4
501.2192	17
522.5977	40
523.6596	5
541.9054	8
626.5021	7
685.5998	42
686.5966	19
699.5804	23
700.5833	6
710.5512	7
712.5498	7
713.5539	7
714.5454	159
715.55	116
716.5529	39
717.5551	34
718.5554	6
719.5532	4
735.5512	2
745.5855	7
746.5879	4
799.4996	20
800.5019	10
