Mass spectrum: Azelaic acid; LC-ESI-ITFT; MS2; CE: 10;  [M-H]-
Name: Azelaic acid
Class: Lipids and lipid-like molecules; Fatty Acyls; Fatty acids and conjugates
Formula: C9H16O4
Exact mass: 188.10486
SMILES: OC(=O)CCCCCCCC(O)=O
InChI: InChI=1S/C9H16O4/c10-8(11)6-4-2-1-3-5-7-9(12)13/h1-7H2,(H,10,11)(H,12,13)
Instrument: Thermo Scientific Q-Exactive Focus
Instrument type: LC-ESI-ITFT
Ms type: MS2
Ion mode: NEGATIVE
Ionization: ESI
Collision energy: 10
Column name: Acquity CSHC18
Retention time: 0.360 min
Base peak: 187.09758
Precursor m/z: 187.09758
Precursor type: [M-H]-
m/z	relative intensity
57.0334	4
58.4077	2
92.5138	7
97.0646	33
123.0804	10
125.0923	2
125.096	999
143.1067	12
169.086	37
187.0968	981
