Mass spectrum: L-Methionine; ESI-TOF; MS2; CE: 0.6458333;  [M+H]+
Name: L-Methionine
Class: NA
Formula: C5H11NO2S
Exact mass: 149.05105
SMILES: CSCCC(N)C(O)=O
InChI: InChI=1S/C5H11NO2S/c1-9-3-2-4(6)5(7)8/h4H,2-3,6H2,1H3,(H,7,8)
Instrument: waters xevo g2 TOF
Instrument type: ESI-TOF
Ms type: MS2
Ion mode: POSITIVE
Ionization: ESI
Collision energy: 0.6458333
Column name: Acquity CSHC18
Retention time: 0.589 min
Base peak: 150.05905
Precursor m/z: 150.05905
Precursor type: [M+H]+
m/z	relative intensity
74.9537	23
87.0271	169
87.0273	94
97.9698	999
99.9699	161
100.9927	24
102.0548	26
104.0534	93
104.0537	33
113.964	67
113.9644	309
113.9645	69
113.9647	59
131.9508	1
133.0327	106
134.0376	3
135.0288	1
172.863	119
377.0107	28
