Mass spectrum: 3-METHYLHISTAMINE; LC-ESI-QTOF; MS2; CE: 10;  [M+H]+
Name: 3-METHYLHISTAMINE
Class: NA
Formula: C6H11N3
Exact mass: 125.09530
SMILES: CN1C=NC=C1CCN
InChI: InChI=1S/C6H11N3/c1-9-5-8-4-6(9)2-3-7/h4-5H,2-3,7H2,1H3
Instrument: Agilent 6530Â Q-TOF LC/MS
Instrument type: LC-ESI-QTOF
Ms type: MS2
Ion mode: POSITIVE
Ionization: ESI
Collision energy: 10
Column name: NA
Retention time: 0.200 min
Base peak: 126.10564
Precursor m/z: 126.10564
Precursor type: [M+H]+
Precursor intensity: 92.5
m/z	relative intensity
68.047	164
95.0687	312
96.0941	378
97.0882	718
109.1025	722
126.1407	999
