Mass spectrum: (Z)-alpha-Bergamotenoic acid; LC-ESI-QTOF; MS2; CE: -10,-35,-60V;  [M-H]-
Name: (Z)-alpha-Bergamotenoic acid
Class: sesquiterpene carboxylic acid
Formula: C15H22O2
Exact mass: 234.1620
SMILES: CC1=CCC2CC1C2(C)CCC=C(C)C(=O)O
InChI: InChI=1S/C15H22O2/c1-10-6-7-12-9-13(10)15(12,3)8-4-5-11(2)14(16)17/h5-6,12-13H,4,7-9H2,1-3H3,(H,16,17)
Instrument: TripleToF5600, Sciex; Acquity, Waters
Instrument type: LC-ESI-QTOF
Ms type: MS2
Ion mode: NEGATIVE
Ionization: ESI
Collision energy: -10,-35,-60V
Column name: Acquity CSHC18
Retention time: 13.560 min
Base peak: 233.1585
Precursor m/z: 233.1585
Precursor type: [M-H]-
Precursor intensity: 6632408
m/z	relative intensity
98.0356	59
99.046	80
111.0474	15
215.1479	16
219.1399	7
221.157	32
232.398	222
232.4259	222
233.1583	999
233.4256	68
233.7968	416
233.9306	205
234.0127	294
234.1617	756
234.7561	79
234.9747	83
235.1651	492
