Mass spectrum: N-palmitoylglycine; ESI-TOF; MS2; CE: 0.6458333;  [M+H]+
Name: N-palmitoylglycine
Class: NA
Formula: C18H35NO3
Exact mass: 313.26169
SMILES: [H]OC(=O)C([H])([H])N([H])C(=O)C([H])([H])C([H])([H])C([H])([H])C([H])([H])C([H])([H])C([H])([H])C([H])([H])C([H])([H])C([H])([H])C([H])([H])C([H])([H])C([H])([H])C([H])([H])C([H])([H])C([H])([H])[H]
InChI: InChI=1S/C18H35NO3/c1-2-3-4-5-6-7-8-9-10-11-12-13-14-15-17(20)19-16-18(21)22/h2-16H2,1H3,(H,19,20)(H,21,22)
Instrument: waters xevo g2 TOF
Instrument type: ESI-TOF
Ms type: MS2
Ion mode: POSITIVE
Ionization: ESI
Collision energy: 0.6458333
Column name: Acquity CSHC18
Retention time: 7.654 min
Base peak: 314.26969
Precursor m/z: 314.26969
Precursor type: [M+H]+
m/z	relative intensity
69.0707	31
71.0864	100
76.0402	721
81.0708	157
83.0865	118
85.102	125
95.086	316
97.1018	65
109.1018	104
113.9864	47
123.117	63
137.1335	1
165.1653	1
169.0182	31
176.6124	1
185.6186	1
192.6265	1
221.2279	1
239.2373	92
240.2408	1
268.2637	1
277.1853	38
296.2586	1
306.2108	36
308.2266	744
309.2299	54
314.27	392
315.2729	77
316.2762	1
323.1928	42
333.243	1
333.7457	1
336.2518	879
337.2543	114
338.2572	1
352.2167	888
353.2199	176
358.2347	34
380.2757	1
390.2575	1
399.2075	1
411.2152	1
414.198	1
427.2488	1
428.2504	1
441.22	1
489.8746	1
490.3746	1
490.8818	1
593.4703	57
627.5314	1
628.5353	1
629.5369	1
639.458	37
649.5071	17
650.5172	1
665.4786	999
666.4818	420
667.4855	102
672.9581	1
673.4619	25
673.9663	5
680.4455	87
681.4506	71
682.4521	24
683.4504	54
684.4513	64
684.9503	60
685.4527	61
693.4375	40
822.1077	1
822.6116	1
823.1115	1
848.5633	37
978.74	88
979.7458	47
980.747	20
993.6949	5
994.7019	1
995.7143	1
996.7119	1
997.7096	3
998.2139	1
998.7163	1
1005.6984	1
1016.69	182
1017.6919	119
1018.6886	31
1032.6679	37
1034.6564	38
