Mass spectrum: THYMIDINE; LC-ESI-QFT; MS2; CE: 30eV;  [M-H]-
Name: THYMIDINE
Class: NA
Formula: C10H14N2O5
Exact mass: 242.09027
SMILES: CC1=CN([C@H]2C[C@H](O)[C@@H](CO)O2)C(=O)NC1=O
InChI: InChI=1S/C10H14N2O5/c1-5-3-12(10(16)11-9(5)15)8-2-6(14)7(4-13)17-8/h3,6-8,13-14H,2,4H2,1H3,(H,11,15,16)/t6-,7+,8+/m0/s1
Instrument: Q-Exactive Orbitrap, Thermo Scientfic; Ultimate 3000 HPLC, Thermo Scientfic
Instrument type: LC-ESI-QFT
Ms type: MS2
Ion mode: NEGATIVE
Ionization: ESI
Collision energy: 30eV
Column name: Acquity CSHC18
Retention time: 2.081 min
Base peak: 241.0830
Precursor m/z: 241.0830
Precursor type: [M-H]-
Precursor intensity: 138
m/z	relative intensity
51.8153	33
53.431	36
54.9067	32
61.8725	37
64.5695	37
77.9791	40
78.5052	37
97.5081	46
103.9186	39
104.8147	44
114.95	225
117.122	47
122.9954	39
125.0342	276
130.7709	48
141.0123	45
149.9116	44
150.9142	295
151.0501	569
152.2686	41
168.9247	665
169.9248	56
179.5055	45
198.0762	58
212.9149	83
213.9157	54
241.0826	999
248.8947	55
