Mass spectrum: ellagic acid; LC-ESI-ITFT; MS2; CE: 0.3;  [M-H]-
Name: ellagic acid
Class: dilactone
Formula: C14H6O8
Exact mass: 302.0063
SMILES: C1=C2C3=C(C(=C1O)O)OC(=O)C4=CC(=C(C(=C43)OC2=O)O)O
InChI: InChI=1S/C14H6O8/c15-5-1-3-7-8-4(14(20)22-11(7)9(5)17)2-6(16)10(18)12(8)21-13(3)19/h1-2,15-18H
Instrument: LTQ-Orbitrap XL hybrid mass spectrometer (Thermo Scientific)
Instrument type: LC-ESI-ITFT
Ms type: MS2
Ion mode: NEGATIVE
Ionization: ESI
Collision energy: 0.3
Column name: Acquity CSHC18
Retention time: 6.967 min
Base peak: 300.9990
Precursor m/z: 300.9990
Precursor type: [M-H]-
Precursor intensity: 11857450
m/z	relative intensity
71.4504	9
71.8124	17
71.8136	15
72.2103	10
73.1004	12
73.6434	8
74.1028	9
76.5364	9
77.2372	9
78.0981	10
78.9349	11
83.5138	9
87.682	9
89.6368	9
92.8798	9
99.1096	9
111.0943	9
123.1426	7
128.9667	8
130.9415	8
136.6115	9
148.9237	8
157.0774	8
173.0247	12
185.0246	201
196.1445	27
201.0194	58
213.0192	25
229.0143	323
245.0093	10
254.9931	9
257.0091	511
273.0042	9
283.9961	109
287.2458	14
287.2555	45
287.2723	15
299.9909	21
300.9988	999
