Mass spectrum: Viguilenin; LC-ESI-ITFT; MS2; CE: 50eV;  [M+H]+
Name: Viguilenin
Class: Sesquiterpenelactone; Germacrolide
Formula: C20H30O7
Exact mass: 382.1992
SMILES: CCC(C)C(=O)OC1CC2(C(CC(O2)(C(CC3C1C(=C)C(=O)O3)C)O)O)C
InChI: InChI=1S/C20H30O7/c1-6-10(2)17(22)26-14-8-19(5)15(21)9-20(24,27-19)11(3)7-13-16(14)12(4)18(23)25-13/h10-11,13-16,21,24H,4,6-9H2,1-3,5H3
Instrument: Q Exactive Plus, ThermoFisher Scientific
Instrument type: LC-ESI-ITFT
Ms type: MS2
Ion mode: POSITIVE
Ionization: ESI
Collision energy: 50eV
Column name: Acquity CSHC18
Retention time: 6.208 min
Base peak: 383.2059
Precursor m/z: 383.2059
Precursor type: [M+H]+
Precursor intensity: 838301900
m/z	relative intensity
69.0524	117
95.0678	161
97.0469	167
99.063	174
107.0679	230
109.0467	242
119.0677	250
121.083	267
123.0625	281
133.0831	312
137.0781	337
145.0828	355
147.0984	375
149.0774	446
151.0935	473
157.0833	492
159.0995	509
161.096	523
163.0941	526
171.0981	600
173.0959	648
175.094	690
181.0933	700
189.1092	903
191.0877	976
201.1095	999
