Mass spectrum: Reserpine; LC-ESI-QTOF; MS2; CE: 32.15;  [M-H]-
Name: Reserpine
Class: NA
Formula: C33H40N2O9
Exact mass: 608.2734
SMILES: COC1C(CC2CN3CCC4=C(C3CC2C1C(=O)OC)NC5=C4C=CC(=C5)OC)OC(=O)C6=CC(=C(C(=C6)OC)OC)OC
InChI: InChI=1S/C33H40N2O9/c1-38-19-7-8-20-21-9-10-35-16-18-13-27(44-32(36)17-11-25(39-2)30(41-4)26(12-17)40-3)31(42-5)28(33(37)43-6)22(18)15-24(35)29(21)34-23(20)14-19/h7-8,11-12,14,18,22,24,27-28,31,34H,9-10,13,15-16H2,1-6H3
Instrument: Bruker MicrOTOF-Q
Instrument type: LC-ESI-QTOF
Ms type: MS2
Ion mode: NEGATIVE
Ionization: ESI
Collision energy: 32.15
Column name: Acquity CSHC18
Retention time: NA
Base peak: 607.2661
Precursor m/z: 607.2661
Precursor type: [M-H]-
m/z	relative intensity
109.0313	72
137.0241	45
181.0137	86
197.04	200
198.0378	37
199.0918	34
211.0624	999
212.0633	125
235.0665	33
316.1174	33
380.175	65
577.2462	55
592.2396	40
