Mass spectrum: BILIVERDIN; LC-ESI-QFT; MS2; CE: 30eV;  [M-H]-
Name: BILIVERDIN
Class: NA
Formula: C33H34N4O6
Exact mass: 582.24783
SMILES: CC1=C(C=C)\C(NC1=O)=C\C1=C(C)C(CCC(O)=O)=C(N1)\C=C1/N\C(=C\C2=NC(=O)C(C=C)=C2C)C(C)=C1CCC(O)=O
InChI: InChI=1S/C33H34N4O6/c1-7-20-19(6)32(42)37-27(20)14-25-18(5)23(10-12-31(40)41)29(35-25)15-28-22(9-11-30(38)39)17(4)24(34-28)13-26-16(3)21(8-2)33(43)36-26/h7-8,13-15,34-35H,1-2,9-12H2,3-6H3,(H,37,42)(H,38,39)(H,40,41)/b24-13+,27-14-,28-15-
Instrument: Q-Exactive Orbitrap, Thermo Scientfic; Ultimate 3000 HPLC, Thermo Scientfic
Instrument type: LC-ESI-QFT
Ms type: MS2
Ion mode: NEGATIVE
Ionization: ESI
Collision energy: 30eV
Column name: Acquity CSHC18
Retention time: 10.214 min
Base peak: 581.2405
Precursor m/z: 581.2405
Precursor type: [M-H]-
Precursor intensity: 128
m/z	relative intensity
51.7884	6
55.6783	7
58.2681	6
59.0123	7
72.887	7
87.8886	8
90.8931	6
92.1523	6
120.0805	10
121.0518	12
122.0596	52
128.7862	7
140.0095	8
145.8692	7
160.0633	10
197.3955	8
213.1024	77
239.1185	490
240.1219	37
241.134	250
242.1375	14
253.1342	37
271.7834	9
285.1244	999
286.1275	99
308.8648	8
363.0661	8
493.2618	18
510.4472	8
548.8202	8
