Mass spectrum: 5-Hydroxyindoleacetic acid; LC-ESI-ITFT; MS2; CE: 100;  [M+H]+
Name: 5-Hydroxyindoleacetic acid
Class: Organoheterocyclic compounds; Indoles and derivatives; Indolyl carboxylic acids and derivatives
Formula: C10H9NO3
Exact mass: 191.05824
SMILES: OC(=O)CC1=CNC2=CC=C(O)C=C12
InChI: InChI=1S/C10H9NO3/c12-7-1-2-9-8(4-7)6(5-11-9)3-10(13)14/h1-2,4-5,11-12H,3H2,(H,13,14)
Instrument: Thermo Scientific Q-Exactive Focus
Instrument type: LC-ESI-ITFT
Ms type: MS2
Ion mode: POSITIVE
Ionization: ESI
Collision energy: 100
Column name: Acquity CSHC18
Retention time: 2.573 min
Base peak: 192.06552
Precursor m/z: 192.06552
Precursor type: [M+H]+
m/z	relative intensity
50.0157	615
51.0235	999
52.0187	107
53.0028	517
62.0156	307
63.0234	582
65.0391	341
74.0156	546
75.0233	280
89.0389	423
