Mass spectrum: C18:1 anandamide; ESI-TOF; MS2; CE: 6.0000000;  [M+H]+
Name: C18:1 anandamide
Class: NA
Formula: C20H39NO2
Exact mass: 325.29808
SMILES: [H]OC([H])([H])C([H])([H])N([H])C(=O)C([H])([H])C([H])([H])C([H])([H])C([H])([H])C([H])([H])C([H])([H])C([H])([H])C([H])=C([H])C([H])([H])C([H])([H])C([H])([H])C([H])([H])C([H])([H])C([H])([H])C([H])([H])C([H])([H])[H]
InChI: InChI=1S/C20H39NO2/c1-2-3-4-5-6-7-8-9-10-11-12-13-14-15-16-17-20(23)21-18-19-22/h9-10,22H,2-8,11-19H2,1H3,(H,21,23)
Instrument: waters xevo g2 TOF
Instrument type: ESI-TOF
Ms type: MS2
Ion mode: POSITIVE
Ionization: ESI
Collision energy: 6.0000000
Column name: Acquity CSHC18
Retention time: 7.636 min
Base peak: 326.30608
Precursor m/z: 326.30608
Precursor type: [M+H]+
m/z	relative intensity
182.6308	34
183.1312	10
183.632	1
184.6259	1
191.6359	3
192.1377	1
203.1441	2
247.2417	1
265.2529	9
308.2951	12
309.2805	33
310.2836	6
321.2105	1
326.4122	999
327.3091	439
