Mass spectrum: N-Methyl-a-aminoisobutyric acid; ESI-TOF; MS2; CE: 6.0000000;  [M+H]+
Name: N-Methyl-a-aminoisobutyric acid
Class: NA
Formula: C5H11NO2
Exact mass: 117.07898
SMILES: CNC(C)(C)C(O)=O
InChI: InChI=1S/C5H11NO2/c1-5(2,6-3)4(7)8/h6H,1-3H3,(H,7,8)
Instrument: waters xevo g2 TOF
Instrument type: ESI-TOF
Ms type: MS2
Ion mode: POSITIVE
Ionization: ESI
Collision energy: 6.0000000
Column name: Acquity CSHC18
Retention time: 0.587 min
Base peak: 118.08698
Precursor m/z: 118.08698
Precursor type: [M+H]+
m/z	relative intensity
58.0663	7
101.0599	16
118.0866	347
118.0867	999
119.0897	100
120.0916	7
130.0081	8
135.9928	5
135.9932	8
138.9895	9
138.9901	11
141.9589	62
155.9936	4
156.9853	2
158.0032	18
158.0033	11
158.0035	22
174.9548	5
258.1692	2
302.1977	1
