Mass spectrum: 1,2-dioleoyl-sn-glycero-3-phosphocholine; ESI-TOF; MS2; CE: 6.0000000;  [M+H]+
Name: 1,2-dioleoyl-sn-glycero-3-phosphocholine
Class: NA
Formula: C44H84NO8P
Exact mass: 785.59346
SMILES: [H]C(=C([H])C([H])([H])C([H])([H])C([H])([H])C([H])([H])C([H])([H])C([H])([H])C([H])([H])C([H])([H])[H])C([H])([H])C([H])([H])C([H])([H])C([H])([H])C([H])([H])C([H])([H])C([H])([H])C(=O)OC([H])([H])C([H])(OC(=O)C([H])([H])C([H])([H])C([H])([H])C([H])([H])C([H])([H])C([H])([H])C([H])([H])C([H])=C([H])C([H])([H])C([H])([H])C([H])([H])C([H])([H])C([H])([H])C([H])([H])C([H])([H])C([H])([H])[H])C([H])([H])OP(=O)([O-])OC([H])([H])C([H])([H])[N+](C([H])([H])[H])(C([H])([H])[H])C([H])([H])[H]
InChI: InChI=1S/C44H84NO8P/c1-6-8-10-12-14-16-18-20-22-24-26-28-30-32-34-36-43(46)50-40-42(41-52-54(48,49)51-39-38-45(3,4)5)53-44(47)37-35-33-31-29-27-25-23-21-19-17-15-13-11-9-7-2/h20-23,42H,6-19,24-41H2,1-5H3
Instrument: waters xevo g2 TOF
Instrument type: ESI-TOF
Ms type: MS2
Ion mode: POSITIVE
Ionization: ESI
Collision energy: 6.0000000
Column name: Acquity CSHC18
Retention time: 11.338 min
Base peak: 786.60146
Precursor m/z: 786.60146
Precursor type: [M+H]+
m/z	relative intensity
184.074	5
214.9184	4
288.1388	7
288.6415	5
321.2109	87
336.1841	2
337.183	49
338.1855	5
412.7779	159
413.2793	58
413.7815	19
420.7658	3
477.7562	6
478.2606	4
485.742	5
504.3452	138
505.3484	39
506.3508	9
565.5376	5
604.541	3
786.727	977
787.6039	999
