Mass spectrum: L-DOPA; LC-ESI-QTOF; MS2; CE: 10;  [M-H]-
Name: L-DOPA
Class: NA
Formula: C9H11NO4
Exact mass: 197.06881
SMILES: N[C@@H](CC1=CC(O)=C(O)C=C1)C(O)=O
InChI: InChI=1S/C9H11NO4/c10-6(9(13)14)3-5-1-2-7(11)8(12)4-5/h1-2,4,6,11-12H,3,10H2,(H,13,14)/t6-/m0/s1
Instrument: Agilent 6530Â Q-TOF LC/MS
Instrument type: LC-ESI-QTOF
Ms type: MS2
Ion mode: NEGATIVE
Ionization: ESI
Collision energy: 10
Column name: NA
Retention time: 0.200 min
Base peak: 196.06457
Precursor m/z: 196.06457
Precursor type: [M-H]-
Precursor intensity: 168
m/z	relative intensity
72.0116	119
74.028	174
107.0506	179
109.0384	208
117.0332	241
122.0457	263
123.0488	317
134.0473	434
135.0618	450
179.0427	667
196.0806	999
