Mass spectrum: genistein; LC-ESI-ITFT; MS2; CE: 0.3;  [M+H]+
Name: genistein
Class: isoflavones
Formula: C15H10O5
Exact mass: 270.0528
SMILES: C1=CC(=CC=C1C2=COC3=CC(=CC(=C3C2=O)O)O)O
InChI: InChI=1S/C15H10O5/c16-9-3-1-8(2-4-9)11-7-20-13-6-10(17)5-12(18)14(13)15(11)19/h1-7,16-18H
Instrument: LTQ-Orbitrap XL hybrid mass spectrometer (Thermo Scientific)
Instrument type: LC-ESI-ITFT
Ms type: MS2
Ion mode: POSITIVE
Ionization: ESI
Collision energy: 0.3
Column name: Acquity CSHC18
Retention time: 8.611 min
Base peak: 271.0601
Precursor m/z: 271.0601
Precursor type: [M+H]+
Precursor intensity: 3355454
m/z	relative intensity
60.7907	1
61.5854	1
66.8013	1
71.4045	1
72.3978	1
81.0295	1
86.624	1
109.143	1
113.019	1
125.981	2
141.9273	1
142.02	1
145.0282	18
149.0232	26
151.3509	1
153.0181	96
159.0439	16
165.019	2
165.4909	1
166.9389	6
173.0601	1
174.2419	1
179.3928	1
187.039	4
187.075	2
193.0737	1
197.0604	3
197.446	2
215.0704	77
225.0548	9
227.0697	3
229.0484	1
243.0652	61
253.0496	36
263.4605	1
269.13	5
271.0603	999
271.1481	6
271.1611	4
