Mass spectrum: Glucoerucin; LC-ESI-QTOF; MS2; CE: 24;  [M-H]-
Name: Glucoerucin
Class: NA
Formula: C12H23NO9S3
Exact mass: 421.0535
SMILES: CSCCCCC(=NOS(=O)(=O)O)SC1C(C(C(C(O1)CO)O)O)O
InChI: InChI=1S/C12H23NO9S3/c1-23-5-3-2-4-8(13-22-25(18,19)20)24-12-11(17)10(16)9(15)7(6-14)21-12/h7,9-12,14-17H,2-6H2,1H3,(H,18,19,20)
Instrument: Bruker MicrOTOF-Q
Instrument type: LC-ESI-QTOF
Ms type: MS2
Ion mode: NEGATIVE
Ionization: ESI
Collision energy: 24
Column name: Acquity CSHC18
Retention time: NA
Base peak: 420.0462
Precursor m/z: 420.0462
Precursor type: [M-H]-
m/z	relative intensity
95.9522	630
96.9597	999
97.9509	43
98.9568	55
127.9248	13
138.9711	22
178.037	23
196.9929	22
226.9876	41
259.0132	77
274.9882	41
