Mass spectrum: 6-keto Prostaglandin E1; ESI-TOF; MS2; CE: 0.6458333;  [M+H]+
Name: 6-keto Prostaglandin E1
Class: NA
Formula: C20H32O6
Exact mass: 368.21989
SMILES: CCCCC[C@H](O)\C=C\[C@H]1[C@H](O)CC(=O)[C@@H]1CC(=O)CCCCC(O)=O
InChI: InChI=1S/C20H32O6/c1-2-3-4-7-14(21)10-11-16-17(19(24)13-18(16)23)12-15(22)8-5-6-9-20(25)26/h10-11,14,16-18,21,23H,2-9,12-13H2,1H3,(H,25,26)/b11-10+/t14-,16+,17+,18+/m0/s1
Instrument: waters xevo g2 TOF
Instrument type: ESI-TOF
Ms type: MS2
Ion mode: POSITIVE
Ionization: ESI
Collision energy: 0.6458333
Column name: Acquity CSHC18
Retention time: 2.994 min
Base peak: 369.22789
Precursor m/z: 369.22789
Precursor type: [M+H]+
m/z	relative intensity
79.0543	99
83.051	10
91.0555	88
95.0858	40
105.0706	161
107.0506	37
111.0454	91
117.0708	47
119.087	100
121.0664	26
129.0703	99
130.0738	10
131.0862	44
133.0659	999
134.0692	83
141.0699	10
143.0858	98
145.103	41
147.0815	254
148.0849	26
153.0703	5
155.088	22
159.1162	19
161.0965	32
163.0756	19
169.1017	23
171.1182	63
173.0973	27
175.1483	38
183.0333	90
185.0972	34
199.1118	84
203.1443	571
204.1488	72
207.1404	5
213.1271	32
219.0357	30
227.1097	6
231.1364	67
237.0444	62
241.1936	76
249.153	8
251.1778	31
261.1869	3
269.1904	791
270.1938	149
287.2004	24
297.1849	116
298.1889	10
315.1135	53
316.1978	13
332.2005	17
333.205	35
334.2055	7
354.1477	12
369.1151	37
371.1531	79
