Mass spectrum: Carbamoylaspartic acid; LC-ESI-QTOF; MS2; CE: 100;  [M+H]+
Name: Carbamoylaspartic acid
Class: NA
Formula: C5H8N2O5
Exact mass: 176.04332
SMILES: C(C(C(=O)O)NC(=O)N)C(=O)O
InChI: InChI=1S/C5H8N2O5/c6-5(12)7-2(4(10)11)1-3(8)9/h2H,1H2,(H,8,9)(H,10,11)(H3,6,7,12)
Instrument: impact II
Instrument type: LC-ESI-QTOF
Ms type: MS2
Ion mode: POSITIVE
Ionization: ESI
Collision energy: 100
Column name: Acquity CSHC18
Retention time: 1.847 min
Base peak: 177.05070
Precursor m/z: 177.05070
Precursor type: [M+H]+
m/z	relative intensity
44.9972	196
45.0168	481
46.0289	679
50.0161	256
51.0239	258
52.0194	124
53.0029	999
58.0662	124
