Mass spectrum: Quercetin 5,3'-dimethyl ether-2; LC-ESI-QTOF; MS2; CE: 50eV;  [M-H]-
Name: Quercetin 5,3'-dimethyl ether-2
Class: Flavonol
Formula: C17H14O7
Exact mass: 330.0740
SMILES: COC1=CC(=CC2=C1C(=O)C(=C(O2)C3=CC(=C(C=C3)O)OC)O)O
InChI: InChI=1S/C17H14O7/c1-22-11-5-8(3-4-10(11)19)17-16(21)15(20)14-12(23-2)6-9(18)7-13(14)24-17/h3-7,18-19,21H,1-2H3
Instrument: TIMS-TOF Pro, Bruker Daltonik; Elute UHPLC System, Bruker Daltonik
Instrument type: LC-ESI-QTOF
Ms type: MS2
Ion mode: NEGATIVE
Ionization: ESI
Collision energy: 50eV
Column name: Acquity CSHC18
Retention time: 6.970 min
Base peak: 329.0609
Precursor m/z: 329.0609
Precursor type: [M-H]-
Precursor intensity: 10269
m/z	relative intensity
68.1716	17
93.0337	171
94.0371	46
95.0413	23
97.0268	29
107.0108	14
109.0264	15
121.0271	999
122.03	110
125.323	20
133.0279	76
148.0144	14
149.0213	60
156.8357	20
161.0218	14
176.1366	19
183.0479	17
201.0188	13
215.03	22
223.036	13
227.0309	24
241.0413	19
255.0606	20
271.0209	93
272.0212	29
273.0728	30
274.0769	15
284.03	19
285.0726	61
286.0451	129
287.0487	26
299.0144	39
301.0641	180
302.069	38
314.0374	128
