Mass spectrum: liquiritigenin; LC-ESI-ITFT; MS2; CE: 0.3;  [M-H]-
Name: liquiritigenin
Class: flavanones
Formula: C15H12O4
Exact mass: 256.0736
SMILES: C1C(OC2=C(C1=O)C=CC(=C2)O)C3=CC=C(C=C3)O
InChI: InChI=1S/C15H12O4/c16-10-3-1-9(2-4-10)14-8-13(18)12-6-5-11(17)7-15(12)19-14/h1-7,14,16-17H,8H2
Instrument: LTQ-Orbitrap XL hybrid mass spectrometer (Thermo Scientific)
Instrument type: LC-ESI-ITFT
Ms type: MS2
Ion mode: NEGATIVE
Ionization: ESI
Collision energy: 0.3
Column name: Acquity CSHC18
Retention time: 7.364 min
Base peak: 255.0665
Precursor m/z: 255.0665
Precursor type: [M-H]-
Precursor intensity: 5502235
m/z	relative intensity
65.8754	1
75.448	1
81.0566	2
83.2735	1
91.0198	32
108.4346	1
110.234	1
111.9845	1
119.0508	102
133.6539	2
134.329	5
134.9354	2
134.9413	2
134.95	2
134.9561	2
134.9635	2
134.9688	3
134.9786	4
134.9871	4
134.9919	6
135.0093	999
135.0258	5
135.0285	4
135.0394	4
135.0482	3
135.0536	3
135.0674	2
135.0728	2
135.1243	1
135.6924	2
145.0295	7
149.025	15
153.0199	8
161.0244	2
167.1116	9
191.203	1
191.7608	1
197.7304	2
211.0771	3
213.0554	3
221.2172	1
227.9052	1
236.5657	1
243.5409	1
255.0641	4
