Mass spectrum: Citrulline; LC-ESI-ITFT; MS2; CE: 40;  [M+H]+
Name: Citrulline
Class: Organic acids and derivatives; Carboxylic acids and derivatives; Amino acids, peptides, and analogues
Formula: C6H13N3O3
Exact mass: 175.09569
SMILES: N[C@@H](CCCNC(N)=O)C(O)=O
InChI: InChI=1S/C6H13N3O3/c7-4(5(10)11)2-1-3-9-6(8)12/h4H,1-3,7H2,(H,10,11)(H3,8,9,12)/t4-/m0/s1
Instrument: Thermo Scientific Q-Exactive Focus
Instrument type: LC-ESI-ITFT
Ms type: MS2
Ion mode: POSITIVE
Ionization: ESI
Collision energy: 40
Column name: Acquity CSHC18
Retention time: 1.463 min
Base peak: 176.10297
Precursor m/z: 176.10297
Precursor type: [M+H]+
m/z	relative intensity
53.0392	36
68.05	33
70.0657	999
95.0495	57
97.008	152
103.0545	86
105.045	9
120.0238	27
130.0653	81
160.1121	12
