Mass spectrum: Malic acid; LC-ESI-ITFT; MS2; CE: 100;  [M-H]-
Name: Malic acid
Class: Organic acids and derivatives; Hydroxy acids and derivatives; Beta hydroxy acids and derivatives
Formula: C4H6O5
Exact mass: 134.02152
SMILES: OC(CC(O)=O)C(O)=O
InChI: InChI=1S/C4H6O5/c5-2(4(8)9)1-3(6)7/h2,5H,1H2,(H,6,7)(H,8,9)
Instrument: Thermo Scientific Q-Exactive Focus
Instrument type: LC-ESI-ITFT
Ms type: MS2
Ion mode: NEGATIVE
Ionization: ESI
Collision energy: 100
Column name: Acquity CSHC18
Retention time: 2.150 min
Base peak: 133.01425
Precursor m/z: 133.01425
Precursor type: [M-H]-
m/z	relative intensity
71.3926	999
73.6476	909
74.4702	953
90.8644	965
92.5138	996
98.4995	889
142.399	867
143.0004	947
143.3844	897
144.2801	927
