Mass spectrum: N-Methyl-a-aminoisobutyric acid; ESI-TOF; MS2; CE: 0.6458333;  [M+H]+
Name: N-Methyl-a-aminoisobutyric acid
Class: NA
Formula: C5H11NO2
Exact mass: 117.07898
SMILES: CNC(C)(C)C(O)=O
InChI: InChI=1S/C5H11NO2/c1-5(2,6-3)4(7)8/h6H,1-3H3,(H,7,8)
Instrument: waters xevo g2 TOF
Instrument type: ESI-TOF
Ms type: MS2
Ion mode: POSITIVE
Ionization: ESI
Collision energy: 0.6458333
Column name: Acquity CSHC18
Retention time: 0.587 min
Base peak: 118.08698
Precursor m/z: 118.08698
Precursor type: [M+H]+
m/z	relative intensity
58.0663	36
73.0661	999
101.0599	36
101.9405	812
118.0866	36
118.0867	36
119.0897	36
120.0916	36
130.0081	36
131.9297	705
135.9928	36
135.9932	36
138.9895	36
138.9901	36
141.9589	36
155.9936	36
156.9853	36
158.0032	36
158.0033	36
158.0035	36
174.9548	36
258.1692	36
302.1977	36
