Mass spectrum: Dehydrocostuslacton-Cysteine; LC-ESI-ITFT; MS2; CE: 50eV;  [M+H]+
Name: Dehydrocostuslacton-Cysteine
Class: Sesquiterpenelactone; Guaianolide
Formula: C18H25NO4S
Exact mass: 351.1504
SMILES: O=C(O)[C@@H](N)CSCC2C(=O)O[C@@H]3C1C(CCC1=C)C(=C)CC[C@@H]23
InChI: InChI=1S/C18H25NO4S/c1-9-3-6-12-13(7-24-8-14(19)17(20)21)18(22)23-16(12)15-10(2)4-5-11(9)15/h11-16H,1-8,19H2,(H,20,21)/t11?,12-,13?,14-,15?,16-/m0/s1
Instrument: Q Exactive Plus, ThermoFisher Scientific
Instrument type: LC-ESI-ITFT
Ms type: MS2
Ion mode: POSITIVE
Ionization: ESI
Collision energy: 50eV
Column name: Acquity CSHC18
Retention time: 6.839 min
Base peak: 352.1566
Precursor m/z: 352.1566
Precursor type: [M+H]+
Precursor intensity: 12055090000
m/z	relative intensity
55.0549	8
70.0294	10
70.3562	10
73.0288	7
76.0224	27
81.0709	37
83.0496	5
88.0215	7
88.0398	52
93.07	19
95.0864	16
105.0701	38
107.0863	9
117.0707	8
119.0859	27
122.0271	43
129.0699	19
131.0863	43
133.102	7
137.0411	10
142.0769	7
143.0861	55
145.1008	36
155.0855	17
157.0643	17
157.1016	153
159.1174	999
161.0423	52
161.1334	41
163.0574	8
168.0924	8
169.1015	10
171.0813	8
171.1174	21
175.0567	9
175.0764	9
183.0463	7
183.117	99
184.1245	8
185.1333	148
187.113	10
187.1493	81
194.1078	6
195.1168	56
201.1284	20
211.1111	8
213.1269	443
217.1039	137
227.0899	11
231.1384	87
245.0999	43
259.1177	5
263.1113	288
271.114	11
288.1434	89
306.1524	222
335.1303	44
352.1558	322
