Mass spectrum: Uridine; LC-ESI-QTOF; MS2; CE: 15;  [M-H]-
Name: Uridine
Class: NA
Formula: C9H12N2O6
Exact mass: 244.0695
SMILES: C1=CN(C(=O)NC1=O)C2C(C(C(O2)CO)O)O
InChI: InChI=1S/C9H12N2O6/c12-3-4-6(14)7(15)8(17-4)11-2-1-5(13)10-9(11)16/h1-2,4,6-8,12,14-15H,3H2,(H,10,13,16)
Instrument: Bruker MicrOTOF-Q
Instrument type: LC-ESI-QTOF
Ms type: MS2
Ion mode: NEGATIVE
Ionization: ESI
Collision energy: 15
Column name: Acquity CSHC18
Retention time: NA
Base peak: 243.0623
Precursor m/z: 243.0623
Precursor type: [M-H]-
m/z	relative intensity
108.0515	58
110.0243	999
111.0251	147
122.0251	282
124.0447	58
134.0161	45
140.0349	108
152.0337	221
