Mass spectrum: Nicotianoside V; LC-ESI-QTOF; MS2; CE: 22.5eV;  [M+NH4]+
Name: Nicotianoside V
Class: Diterpene
Formula: C50H78O26
Exact mass: 1094.4781
SMILES: O=C(O)CC(=O)OC[C@H]1O[C@@H](OCC(/C)=C\CCC(\C)=C\CCC(\C)=C\CC[C@](C)(O[C@@H]2O[C@H](COC(=O)CC(=O)O)[C@@H](O[C@@H]3O[C@@H](C)[C@H](O)[C@@H](O)[C@H]3O)[C@H](O)[C@H]2O)C=C)[C@H](O)[C@@H](O)[C@H]1O[C@@H]1O[C@@H](C)[C@H](O)[C@@H](O)[C@H]1O
InChI: InChI=1S/C50H78O26/c1-8-50(7,76-49-43(66)39(62)45(29(73-49)22-68-33(56)19-31(53)54)75-48-41(64)37(60)35(58)27(6)71-48)17-11-16-24(3)13-9-12-23(2)14-10-15-25(4)20-69-46-42(65)38(61)44(28(72-46)21-67-32(55)18-30(51)52)74-47-40(63)36(59)34(57)26(5)70-47/h8,12,15-16,26-29,34-49,57-66H,1,9-11,13-14,17-22H2,2-7H3,(H,51,52)(H,53,54)/b23-12+,24-16+,25-15-/t26-,27-,28+,29+,34-,35-,36+,37+,38+,39+,40+,41+,42+,43+,44-,45+,46+,47-,48-,49-,50+/m0/s1
Instrument: Impact II qTOF
Instrument type: LC-ESI-QTOF
Ms type: MS2
Ion mode: POSITIVE
Ionization: ESI
Collision energy: 22.5eV
Column name: Acquity CSH C18 column (particle size 1.7 μm, column length 2.1 × 50 mm) (Waters)
Retention time: 21.9 min
Base peak: 1112.5103
Precursor m/z: 1112.5103
Precursor type: [M+NH4]+
m/z	relative intensity
213.0409	18
215.181	23
231.0504	28
249.0618	31
271.2422	404
272.2457	75
289.2537	17
293.1233	105
359.097	52
377.1085	48
395.1186	185
396.1234	27
399.2895	39
417.3001	130
418.303	40
435.3126	18
497.1147	47
505.1553	28
519.2971	21
523.166	19
537.3055	25
541.1763	71
542.1758	18
559.1895	22
563.3576	39
643.1705	21
665.3523	25
683.3635	45
829.4189	26
1112.5103	999
