Mass spectrum: 5-Methoxyflavone; LC-ESI-ITFT; MS2; CE: 45eV;  [M+H]+
Name: 5-Methoxyflavone
Class: Flavonoid
Formula: C16H12O3
Exact mass: 252.0786
SMILES: COC1=CC=CC2=C1C(=O)C=C(O2)C3=CC=CC=C3
InChI: InChI=1S/C16H12O3/c1-18-13-8-5-9-14-16(13)12(17)10-15(19-14)11-6-3-2-4-7-11/h2-10H,1H3
Instrument: LTQ Orbitrap XL, Thermo Scientfic; Dionex Ultimate 300
Instrument type: LC-ESI-ITFT
Ms type: MS2
Ion mode: POSITIVE
Ionization: ESI
Collision energy: 45eV
Column name: Alltima C18
Retention time: 20.14 min
Base peak: 253.0860
Precursor m/z: 253.0860
Precursor type: [M+H]+
m/z	relative intensity
124.8238	118
140.777	118
167.0017	394
197.0946	499
223.2374	157
225.0463	999
235.3256	565
