Mass spectrum: METHYLMALONATE; LC-ESI-QTOF; MS2; CE: 40;  [M-H]-
Name: METHYLMALONATE
Class: NA
Formula: C4H6O4
Exact mass: 118.02661
SMILES: CC(C(O)=O)C(O)=O
InChI: InChI=1S/C4H6O4/c1-2(3(5)6)4(7)8/h2H,1H3,(H,5,6)(H,7,8)
Instrument: Agilent 6530Â Q-TOF LC/MS
Instrument type: LC-ESI-QTOF
Ms type: MS2
Ion mode: NEGATIVE
Ionization: ESI
Collision energy: 40
Column name: NA
Retention time: 0.200 min
Base peak: 117.02030
Precursor m/z: 117.02030
Precursor type: [M-H]-
Precursor intensity: 115
m/z	relative intensity
40.0135	123
41.0044	261
55.0402	999
