Mass spectrum: Quercetin; LC-ESI-ITFT; MS2; CE: 0.3;  [M+H]+
Name: Quercetin
Class: flavonols
Formula: C15H10O7
Exact mass: 302.0427
SMILES: C1=CC(=C(C=C1C2=C(C(=O)C3=C(C=C(C=C3O2)O)O)O)O)O
InChI: InChI=1S/C15H10O7/c16-7-4-10(19)12-11(5-7)22-15(14(21)13(12)20)6-1-2-8(17)9(18)3-6/h1-5,16-19,21H
Instrument: LTQ-Orbitrap XL hybrid mass spectrometer (Thermo Scientific)
Instrument type: LC-ESI-ITFT
Ms type: MS2
Ion mode: POSITIVE
Ionization: ESI
Collision energy: 0.3
Column name: Acquity CSHC18
Retention time: 7.439 min
Base peak: 303.0485
Precursor m/z: 303.0485
Precursor type: [M+H]+
Precursor intensity: 8162925
m/z	relative intensity
78.3544	16
98.9576	17
103.3904	13
110.1981	17
110.3936	15
111.0073	29
119.0019	13
121.0276	48
128.3253	13
129.0597	13
129.098	15
130.7712	12
137.0224	145
139.8114	15
145.819	17
147.5888	14
149.0228	57
153.0175	150
161.0588	31
163.0384	53
165.0174	575
166.945	29
170.8049	13
173.6433	17
174.8256	17
179.6026	18
183.4321	17
189.0136	16
189.9398	17
190.5667	20
191.032	18
191.768	16
192.8026	19
195.0274	53
196.0711	16
197.3343	16
200.2399	20
201.0529	71
201.2806	20
201.6619	18
202.7019	15
205.0494	21
205.4968	17
212.0343	20
213.0537	41
215.0329	30
219.0277	35
219.0653	31
229.0487	760
230.6071	16
235.8203	16
241.0502	19
245.3127	19
247.0596	280
247.3735	18
248.0626	20
253.6682	16
256.4653	17
257.0436	999
258.0497	21
261.0387	19
262.1651	14
262.4775	23
264.007	15
264.197	20
274.0463	127
275.0537	86
277.7012	17
281.2444	16
285.0382	571
286.0423	39
292.178	17
303.0486	597
