Mass spectrum: 3-METHYL-2-OXOVALERATE; LC-ESI-QTOF; MS2; CE: 40;  [M-H]-
Name: 3-METHYL-2-OXOVALERATE
Class: NA
Formula: C6H10O3
Exact mass: 130.06299
SMILES: CCC(C)C(=O)C(O)=O
InChI: InChI=1S/C6H10O3/c1-3-4(2)5(7)6(8)9/h4H,3H2,1-2H3,(H,8,9)
Instrument: Agilent 6530Â Q-TOF LC/MS
Instrument type: LC-ESI-QTOF
Ms type: MS2
Ion mode: NEGATIVE
Ionization: ESI
Collision energy: 40
Column name: NA
Retention time: 0.200 min
Base peak: 129.05418
Precursor m/z: 129.05418
Precursor type: [M-H]-
Precursor intensity: 139
m/z	relative intensity
41.3848	19
51.2938	19
51.2979	153
51.302	153
51.3061	134
51.3102	96
51.3143	38
52.0357	57
54.7593	19
64.0149	211
64.0195	307
64.024	345
64.0286	365
64.0332	288
64.0378	211
64.0424	192
64.047	172
65.2319	38
69.2186	19
69.3283	19
80.4517	19
82.7152	38
82.7204	38
85.9697	38
95.8235	19
103.1434	19
107.8135	19
118.4854	230
118.4916	768
118.4979	999
118.5041	826
118.5103	499
118.5166	345
118.5228	345
118.5291	249
118.5353	134
118.5416	134
118.5478	76
118.554	38
118.5665	76
118.5728	57
118.8915	19
119.4611	76
119.4674	230
119.4737	192
119.48	76
119.8375	19
119.8814	38
121.4563	19
121.4626	57
130.7995	19
