Mass spectrum: 15(S)-Fluprostenol; ESI-TOF; MS2; CE: 0.6458333;  [M+H]+
Name: 15(S)-Fluprostenol
Class: NA
Formula: C23H29F3O6
Exact mass: 458.19162
SMILES: O[C@@H]1[C@H](C/C=C\CCCC(O)=O)[C@@H](/C=C/[C@H](O)COC2=CC(C(F)(F)F)=CC=C2)[C@H](O)C1
InChI: InChI=1S/C23H29F3O6/c24-23(25,26)15-6-5-7-17(12-15)32-14-16(27)10-11-19-18(20(28)13-21(19)29)8-3-1-2-4-9-22(30)31/h1,3,5-7,10-12,16,18-21,27-29H,2,4,8-9,13-14H2,(H,30,31)/b3-1-,11-10+/t16-,18+,19+,20-,21+/m0/s1
Instrument: waters xevo g2 TOF
Instrument type: ESI-TOF
Ms type: MS2
Ion mode: POSITIVE
Ionization: ESI
Collision energy: 0.6458333
Column name: Acquity CSHC18
Retention time: 3.651 min
Base peak: 459.19962
Precursor m/z: 459.19962
Precursor type: [M+H]+
m/z	relative intensity
77.0398	77
83.0496	742
93.0707	255
98.9616	69
101.9653	13
105.0701	703
117.0712	999
119.086	450
127.9803	13
129.0695	875
130.075	84
131.0856	637
135.0817	79
141.0695	340
142.0795	211
143.086	633
145.1019	375
147.0824	134
154.0771	136
155.0854	975
156.093	182
157.101	13
159.0996	52
161.0978	297
165.0713	189
166.0781	194
169.1017	524
171.1177	13
173.1157	92
177.0947	19
179.0884	162
181.1022	404
183.1176	602
192.0911	106
197.1331	364
199.112	202
201.1274	13
207.1253	211
210.0638	13
210.5684	13
217.1397	13
218.1264	13
219.102	13
225.1272	393
226.1312	13
233.1527	13
235.1645	13
243.1379	467
244.1432	13
245.1366	13
261.1486	13
262.1524	13
279.159	13
280.1619	13
281.1658	13
293.1756	13
333.1692	38
339.2466	13
405.1644	13
441.0966	13
451.0844	99
