Mass spectrum: 1,2-diarachidoyl-sn-glycero-3-phosphocholine; ESI-TOF; MS2; CE: 0.6458333;  [M+H]+
Name: 1,2-diarachidoyl-sn-glycero-3-phosphocholine
Class: NA
Formula: C48H96NO8P
Exact mass: 845.68736
SMILES: [H]C([H])([H])C([H])([H])C([H])([H])C([H])([H])C([H])([H])C([H])([H])C([H])([H])C([H])([H])C([H])([H])C([H])([H])C([H])([H])C([H])([H])C([H])([H])C([H])([H])C([H])([H])C([H])([H])C([H])([H])C([H])([H])C([H])([H])C(=O)OC([H])([H])C([H])(OC(=O)C([H])([H])C([H])([H])C([H])([H])C([H])([H])C([H])([H])C([H])([H])C([H])([H])C([H])([H])C([H])([H])C([H])([H])C([H])([H])C([H])([H])C([H])([H])C([H])([H])C([H])([H])C([H])([H])C([H])([H])C([H])([H])C([H])([H])[H])C([H])([H])OP(=O)([O-])OC([H])([H])C([H])([H])[N+](C([H])([H])[H])(C([H])([H])[H])C([H])([H])[H]
InChI: InChI=1S/C48H96NO8P/c1-6-8-10-12-14-16-18-20-22-24-26-28-30-32-34-36-38-40-47(50)54-44-46(45-56-58(52,53)55-43-42-49(3,4)5)57-48(51)41-39-37-35-33-31-29-27-25-23-21-19-17-15-13-11-9-7-2/h46H,6-45H2,1-5H3
Instrument: waters xevo g2 TOF
Instrument type: ESI-TOF
Ms type: MS2
Ion mode: POSITIVE
Ionization: ESI
Collision energy: 0.6458333
Column name: Acquity CSHC18
Retention time: 12.639 min
Base peak: 846.69536
Precursor m/z: 846.69536
Precursor type: [M+H]+
m/z	relative intensity
86.0974	16
97.9697	14
156.8899	12
184.074	451
185.0773	48
352.2606	32
475.3179	11
534.3917	229
535.395	147
709.5135	10
727.484	10
809.6014	30
810.6053	13
818.6585	8
832.6789	11
833.6764	5
846.6914	999
847.696	275
