Mass spectrum: Naringenin; LC-ESI-QFT; MS2; CE: NCE_15_30_80;  [M-H]-
Name: Naringenin
Class: NA
Formula: C15H12O5
Exact mass: 272.0685
SMILES: C1C(OC2=CC(=CC(=C2C1=O)O)O)C3=CC=C(C=C3)O
InChI: InChI=1S/C15H12O5/c16-9-3-1-8(2-4-9)13-7-12(19)15-11(18)5-10(17)6-14(15)20-13/h1-6,13,16-18H,7H2
Instrument: Thermo_Qexactive_Plus
Instrument type: LC-ESI-QFT
Ms type: MS2
Ion mode: NEGATIVE
Ionization: ESI
Collision energy: NCE_15_30_80
Column name: Acquity CSHC18
Retention time: 6.507 min
Base peak: 271.0616
Precursor m/z: 271.0616
Precursor type: [M-H]-
Precursor intensity: 1180800000
m/z	relative intensity
55.3038	6
63.0227	7
63.2094	7
65.0017	8
70.8308	8
83.0125	8
93.033	9
94.0363	10
107.012	10
108.0158	10
119.0499	11
120.0522	15
121.0282	18
125.0231	19
145.028	25
151.003	28
152.0059	30
165.0183	35
169.0131	37
177.018	38
185.0605	40
187.0403	57
199.0726	98
202.735	109
227.07	117
229.0508	278
253.0511	688
271.0625	999
