Mass spectrum: Tifruticin, desoxy-1,2-dihydro; LC-ESI-ITFT; MS2; CE: 50eV;  [M+H]+
Name: Tifruticin, desoxy-1,2-dihydro
Class: Sesquiterpenelactone; Heliangolide
Formula: C20H28O6
Exact mass: 364.1886
SMILES: C\C=C(\C)C(=O)O[C@@H]1C[C@@](C)(O)CC[C@H](O)C(C)=C[C@@H]2OC(=O)C(=C)[C@H]12
InChI: InChI=1S/C20H28O6/c1-6-11(2)18(22)26-16-10-20(5,24)8-7-14(21)12(3)9-15-17(16)13(4)19(23)25-15/h6,9,14-17,21,24H,4,7-8,10H2,1-3,5H3/b11-6-,12-9?/t14-,15-,16+,17-,20-/m0/s1
Instrument: Q Exactive Plus, ThermoFisher Scientific
Instrument type: LC-ESI-ITFT
Ms type: MS2
Ion mode: POSITIVE
Ionization: ESI
Collision energy: 50eV
Column name: Acquity CSHC18
Retention time: 6.207 min
Base peak: 365.1965
Precursor m/z: 365.1965
Precursor type: [M+H]+
Precursor intensity: 20182170
m/z	relative intensity
51.7347	45
55.0549	97
57.6246	42
68.8351	293
83.0502	999
86.1249	46
95.0499	606
99.0439	75
137.4354	48
157.1003	62
173.0596	77
173.133	61
175.1116	54
183.1166	310
187.0739	91
201.1275	859
205.0863	110
211.113	95
217.1208	71
219.1374	107
229.1206	877
233.0791	65
247.1334	767
265.1073	77
265.1441	311
324.2195	49
324.3801	47
365.1984	277
