Mass spectrum: 8-iso-16-cyclohexyl-tetranor Prostaglandin E2; ESI-TOF; MS2; CE: 6.0000000;  [M+H]+
Name: 8-iso-16-cyclohexyl-tetranor Prostaglandin E2
Class: NA
Formula: C22H34O5
Exact mass: 378.24062
SMILES: OC(=O)CCC/C=C\C[C@@H]1C(=O)CC(O)[C@@H]1\C=C\C(O)CC1CCCCC1
InChI: InChI=1S/C22H34O5/c23-17(14-16-8-4-3-5-9-16)12-13-19-18(20(24)15-21(19)25)10-6-1-2-7-11-22(26)27/h1,6,12-13,16-19,21,23,25H,2-5,7-11,14-15H2,(H,26,27)/b6-1-,13-12+/t17?,18-,19+,21?/m0/s1
Instrument: waters xevo g2 TOF
Instrument type: ESI-TOF
Ms type: MS2
Ion mode: POSITIVE
Ionization: ESI
Collision energy: 6.0000000
Column name: Acquity CSHC18
Retention time: 3.771 min
Base peak: 379.24862
Precursor m/z: 379.24862
Precursor type: [M+H]+
m/z	relative intensity
98.967	8
133.1023	6
175.1142	6
200.097	44
225.1286	10
227.1435	21
229.122	107
245.1559	20
247.1339	32
249.1835	8
277.1846	14
281.1901	9
289.2149	49
297.2204	32
307.2064	101
308.2047	17
315.2299	41
317.1587	72
318.2123	8
325.2164	452
326.2191	136
331.1264	13
343.2278	999
344.231	78
345.2339	27
361.2379	205
362.2413	79
371.2016	9
380.2104	214
380.7119	93
381.2114	21
