Mass spectrum: 3-DEHYDROSHIKIMATE; LC-ESI-QFT; MS2; CE: 30eV;  [M+H]+
Name: 3-DEHYDROSHIKIMATE
Class: NA
Formula: C7H8O5
Exact mass: 172.03717
SMILES: C1C(C(C(=O)C=C1C(=O)O)O)O
InChI: InChI=1S/C7H8O5/c8-4-1-3(7(11)12)2-5(9)6(4)10/h1,5-6,9-10H,2H2,(H,11,12)
Instrument: Q-Exactive Orbitrap, Thermo Scientfic; Ultimate 3000 HPLC, Thermo Scientfic
Instrument type: LC-ESI-QFT
Ms type: MS2
Ion mode: POSITIVE
Ionization: ESI
Collision energy: 30eV
Column name: Acquity CSHC18
Retention time: 0.720 min
Base peak: 173.0444
Precursor m/z: 173.0444
Precursor type: [M+H]+
Precursor intensity: 120
m/z	relative intensity
51.2589	19
52.7375	20
55.9352	23
69.3021	24
72.3804	27
81.0342	354
82.1428	26
83.0498	28
89.6031	25
90.9483	26
91.9561	32
93.1498	21
103.1668	26
108.1298	25
109.029	999
114.9722	303
114.9757	36
117.8682	23
119.951	46
122.4009	22
126.9721	40
127.0394	722
130.9669	48
131.2018	24
131.4632	29
137.0237	50
144.9146	26
144.983	38
148.9775	61
149.9616	47
155.0341	340
172.1336	396
173.1371	104
