Mass spectrum: melicopicine; LC-ESI-ITFT; MS2; CE: 0.3;  [M+H]+
Name: melicopicine
Class: alkaloids
Formula: C18H19NO5
Exact mass: 329.1263
SMILES: CN1C2=CC=CC=C2C(=O)C3=C1C(=C(C(=C3OC)OC)OC)OC
InChI: InChI=1S/C18H19NO5/c1-19-11-9-7-6-8-10(11)14(20)12-13(19)16(22-3)18(24-5)17(23-4)15(12)21-2/h6-9H,1-5H3
Instrument: LTQ-Orbitrap XL hybrid mass spectrometer (Thermo Scientific)
Instrument type: LC-ESI-ITFT
Ms type: MS2
Ion mode: POSITIVE
Ionization: ESI
Collision energy: 0.3
Column name: Acquity CSHC18
Retention time: 10.972 min
Base peak: 330.1325
Precursor m/z: 330.1325
Precursor type: [M+H]+
Precursor intensity: 68112570
m/z	relative intensity
85.8985	2
92.676	3
99.0875	3
105.7229	2
105.7346	3
109.4066	2
112.8311	3
141.2174	3
156.8637	3
166.9482	6
206.364	3
271.6156	2
272.0609	2
282.0751	5
300.086	573
315.0217	3
315.0344	6
315.1095	999
315.1888	4
315.2035	6
315.2392	3
315.254	5
