Mass spectrum: Coniferaldehyde; LC-ESI-QTOF; MS2; CE: 50eV;  [M+H-H2O]+
Name: Coniferaldehyde
Class: Phenylpropanoid
Formula: C10H10O3
Exact mass: 178.0630
SMILES: COC1=C(C=CC(=C1)C=CC=O)O
InChI: InChI=1S/C10H10O3/c1-13-10-7-8(3-2-6-11)4-5-9(10)12/h2-7,12H,1H3
Instrument: TIMS-TOF Pro, Bruker Daltonik; Elute UHPLC System, Bruker Daltonik
Instrument type: LC-ESI-QTOF
Ms type: MS2
Ion mode: POSITIVE
Ionization: ESI
Collision energy: 50eV
Column name: Acquity CSHC18
Retention time: 5.900 min
Base peak: 161.0592
Precursor m/z: 161.0592
Precursor type: [M+H-H2O]+
Precursor intensity: 2123.44
m/z	relative intensity
77.0369	403
89.0393	274
103.0539	503
118.0423	416
128.6207	23
145.999	254
146.0354	999
