Mass spectrum: Hippuric acid; LC-ESI-ITFT; MS2; CE: 40;  [M-H]-
Name: Hippuric acid
Class: Benzenoids; Benzene and substituted derivatives; Benzoic acids and derivatives
Formula: C9H9NO3
Exact mass: 179.05824
SMILES: OC(=O)CNC(=O)C1=CC=CC=C1
InChI: InChI=1S/C9H9NO3/c11-8(12)6-10-9(13)7-4-2-1-3-5-7/h1-5H,6H2,(H,10,13)(H,11,12)
Instrument: Thermo Scientific Q-Exactive Focus
Instrument type: LC-ESI-ITFT
Ms type: MS2
Ion mode: NEGATIVE
Ionization: ESI
Collision energy: 40
Column name: Acquity CSHC18
Retention time: 1.474 min
Base peak: 178.05096
Precursor m/z: 178.05096
Precursor type: [M-H]-
m/z	relative intensity
57.8126	640
62.1404	676
90.0306	734
98.513	649
125.782	646
129.9273	647
141.2269	717
159.6904	674
168.5078	999
177.4275	645
