Mass spectrum: Caffeic acid; LC-ESI-QTOF; MS2; CE: 0.00;  [M+H]+
Name: Caffeic acid
Class: NA
Formula: C9H8O4
Exact mass: 180.0423
SMILES: C1=CC(=C(C=C1C=CC(=O)O)O)O
InChI: InChI=1S/C9H8O4/c10-7-3-1-6(5-8(7)11)2-4-9(12)13/h1-5,10-11H,(H,12,13)
Instrument: Bruker MicrOTOF-Q
Instrument type: LC-ESI-QTOF
Ms type: MS2
Ion mode: POSITIVE
Ionization: ESI
Collision energy: 0.00
Column name: Acquity CSHC18
Retention time: NA
Base peak: 181.0495
Precursor m/z: 181.0495
Precursor type: [M+H]+
m/z	relative intensity
107.0477	2
117.0313	95
118.0364	11
119.0465	1
134.031	5
134.9594	1
135.0429	686
135.2349	1
135.3633	1
136.0466	59
139.037	10
144.9425	1
145.0275	529
146.0311	49
147.0333	1
162.8467	1
162.9027	1
162.9246	1
163.0389	999
163.2011	1
163.2274	1
163.2612	1
163.3884	2
164.0424	111
165.0363	2
179.0337	1
180.0348	2
181.0424	1
