Mass spectrum: Fraxin; LC-ESI-QTOF; MS2; CE: 50eV;  [M+H]+
Name: Fraxin
Class: Coumarin
Formula: C16H18O10
Exact mass: 370.0900
SMILES: COC1=C(C(=C2C(=C1)C=CC(=O)O2)OC3C(C(C(C(O3)CO)O)O)O)O
InChI: InChI=1S/C16H18O10/c1-23-7-4-6-2-3-9(18)25-14(6)15(11(7)20)26-16-13(22)12(21)10(19)8(5-17)24-16/h2-4,8,10,12-13,16-17,19-22H,5H2,1H3
Instrument: TIMS-TOF Pro, Bruker Daltonik; Elute UHPLC System, Bruker Daltonik
Instrument type: LC-ESI-QTOF
Ms type: MS2
Ion mode: POSITIVE
Ionization: ESI
Collision energy: 50eV
Column name: Acquity CSHC18
Retention time: 4.221 min
Base peak: 371.0974
Precursor m/z: 371.0974
Precursor type: [M+H]+
Precursor intensity: 3135.06
m/z	relative intensity
181.0662	999
