Mass spectrum: 24:0(2R-OH) Ceramide; ESI-TOF; MS2; CE: 6.0000000;  [M+H]+
Name: 24:0(2R-OH) Ceramide
Class: NA
Formula: C42H83NO4
Exact mass: 665.63221
SMILES: [H]OC([H])([H])C([H])(N([H])C(=O)C([H])(O[H])C([H])([H])C([H])([H])C([H])([H])C([H])([H])C([H])([H])C([H])([H])C([H])([H])C([H])([H])C([H])([H])C([H])([H])C([H])([H])C([H])([H])C([H])([H])C([H])([H])C([H])([H])C([H])([H])C([H])([H])C([H])([H])C([H])([H])C([H])([H])C([H])([H])C([H])([H])[H])C([H])(O[H])C([H])=C([H])C([H])([H])C([H])([H])C([H])([H])C([H])([H])C([H])([H])C([H])([H])C([H])([H])C([H])([H])C([H])([H])C([H])([H])C([H])([H])C([H])([H])C([H])([H])[H]
InChI: InChI=1S/C42H83NO4/c1-3-5-7-9-11-13-15-17-18-19-20-21-22-23-25-27-29-31-33-35-37-41(46)42(47)43-39(38-44)40(45)36-34-32-30-28-26-24-16-14-12-10-8-6-4-2/h34,36,39-41,44-46H,3-33,35,37-38H2,1-2H3,(H,43,47)
Instrument: waters xevo g2 TOF
Instrument type: ESI-TOF
Ms type: MS2
Ion mode: POSITIVE
Ionization: ESI
Collision energy: 6.0000000
Column name: Acquity CSHC18
Retention time: 12.326 min
Base peak: 666.64021
Precursor m/z: 666.64021
Precursor type: [M+H]+
m/z	relative intensity
214.9181	47
352.7985	32
353.2999	55
473.3175	20
621.49	25
648.6288	999
649.6323	474
650.6369	124
666.6383	574
667.6421	270
668.6454	60
685.4206	243
685.6121	156
686.1146	141
686.6154	65
687.118	24
688.6215	355
689.6244	177
690.6269	43
694.1023	24
694.6002	18
704.5891	8
704.5915	16
747.3912	22
751.5953	83
766.5618	41
767.566	26
1018.429	75
1018.9293	171
1019.432	125
1019.9342	31
1027.4167	23
