Mass spectrum: Sorbitol; LC-ESI-QTOF; MS2; CE: 15;  [M-H]-
Name: Sorbitol
Class: NA
Formula: C6H14O6
Exact mass: 182.0790
SMILES: C(C(C(C(C(CO)O)O)O)O)O
InChI: InChI=1S/C6H14O6/c7-1-3(9)5(11)6(12)4(10)2-8/h3-12H,1-2H2
Instrument: Bruker MicrOTOF-Q
Instrument type: LC-ESI-QTOF
Ms type: MS2
Ion mode: NEGATIVE
Ionization: ESI
Collision energy: 15
Column name: Acquity CSHC18
Retention time: NA
Base peak: 181.0718
Precursor m/z: 181.0718
Precursor type: [M-H]-
m/z	relative intensity
54.2767	310
55.7515	151
58.7491	249
60.5323	219
61.9901	158
63.2396	295
64.3199	151
64.9902	295
67.3374	204
69.1244	325
69.7956	204
71.3726	211
81.1659	264
81.7017	166
83.0073	385
91.5018	219
95.2661	174
97.0218	196
100.8392	264
101.0225	999
103.4147	302
108.4411	166
113.0217	688
119.0378	264
121.9631	151
144.5175	310
145.0534	370
163.04	249
181.0091	257
181.0818	968
183.1147	227
216.5579	227
220.7636	151
283.7007	295
342.4206	181
391.72	166
444.3031	242
460.8233	158
481.8877	280
498.2562	181
521.0887	227
559.4028	196
723.3487	181
789.1857	181
791.4629	249
