Mass spectrum: Fructose; LC-ESI-QTOF; MS2; CE: 21.23;  [2M+Na]+
Name: Fructose
Class: NA
Formula: C6H12O6
Exact mass: 180.0634
SMILES: C(C(C(C(C(=O)CO)O)O)O)O
InChI: InChI=1S/C6H12O6/c7-1-3(9)5(11)6(12)4(10)2-8/h3,5-9,11-12H,1-2H2
Instrument: Bruker MicrOTOF-Q
Instrument type: LC-ESI-QTOF
Ms type: MS2
Ion mode: POSITIVE
Ionization: ESI
Collision energy: 21.23
Column name: Acquity CSHC18
Retention time: NA
Base peak: 383.1160
Precursor m/z: 383.1160
Precursor type: [2M+Na]+
m/z	relative intensity
203.0525	13
204.0548	64
205.0575	999
