Mass spectrum: C16-20:5 PC; ESI-TOF; MS2; CE: 0.6458333;  [M+H]+
Name: C16-20:5 PC
Class: NA
Formula: C44H80NO7P
Exact mass: 765.56724
SMILES: [H]C(=C([H])C([H])([H])C([H])=C([H])C([H])([H])C([H])=C([H])C([H])([H])C([H])([H])C([H])([H])C(=O)OC([H])(C([H])([H])OC([H])([H])C([H])([H])C([H])([H])C([H])([H])C([H])([H])C([H])([H])C([H])([H])C([H])([H])C([H])([H])C([H])([H])C([H])([H])C([H])([H])C([H])([H])C([H])([H])C([H])([H])C([H])([H])[H])C([H])([H])OP(=O)([O-])OC([H])([H])C([H])([H])[N+](C([H])([H])[H])(C([H])([H])[H])C([H])([H])[H])C([H])([H])C([H])=C([H])C([H])([H])C([H])=C([H])C([H])([H])C([H])([H])[H]
InChI: InChI=1S/C44H80NO7P/c1-6-8-10-12-14-16-18-20-22-23-24-25-27-29-31-33-35-37-44(46)52-43(42-51-53(47,48)50-40-38-45(3,4)5)41-49-39-36-34-32-30-28-26-21-19-17-15-13-11-9-7-2/h8,10,14,16,20,22,24-25,29,31,43H,6-7,9,11-13,15,17-19,21,23,26-28,30,32-42H2,1-5H3
Instrument: waters xevo g2 TOF
Instrument type: ESI-TOF
Ms type: MS2
Ion mode: POSITIVE
Ionization: ESI
Collision energy: 0.6458333
Column name: Acquity CSHC18
Retention time: 11.120 min
Base peak: 766.57524
Precursor m/z: 766.57524
Precursor type: [M+H]+
m/z	relative intensity
86.0974	24
104.1079	35
125.0007	8
162.9482	2
166.0635	7
184.0743	999
185.0777	64
186.0788	10
341.1798	182
342.1833	38
343.1844	4
357.1519	4
387.1693	4
402.1427	3
402.7648	21
403.2658	4
403.7683	1
405.2903	3
464.3501	161
465.3542	20
466.3564	3
482.3588	3
524.2465	2
537.3946	47
552.4122	2
553.3773	2
563.2033	2
583.5093	28
584.5113	10
587.3817	26
588.3857	2
589.3842	5
605.4893	5
606.4923	2
609.3642	1
659.9669	23
660.4689	19
660.9704	11
661.4713	3
661.9686	1
729.4821	75
730.4868	37
731.488	5
756.008	3
756.5107	3
766.5741	600
767.5776	306
