Mass spectrum: 1-C16 Ether MG; ESI-TOF; MS2; CE: 0.6458333;  [M+H]+
Name: 1-C16 Ether MG
Class: NA
Formula: C19H40O3
Exact mass: 316.29775
SMILES: [H]OC([H])([H])C([H])(O[H])C([H])([H])OC([H])([H])C([H])([H])C([H])([H])C([H])([H])C([H])([H])C([H])([H])C([H])([H])C([H])([H])C([H])([H])C([H])([H])C([H])([H])C([H])([H])C([H])([H])C([H])([H])C([H])([H])C([H])([H])[H]
InChI: InChI=1S/C19H40O3/c1-2-3-4-5-6-7-8-9-10-11-12-13-14-15-16-22-18-19(21)17-20/h19-21H,2-18H2,1H3
Instrument: waters xevo g2 TOF
Instrument type: ESI-TOF
Ms type: MS2
Ion mode: POSITIVE
Ionization: ESI
Collision energy: 0.6458333
Column name: Acquity CSHC18
Retention time: 7.567 min
Base peak: 317.30575
Precursor m/z: 317.30575
Precursor type: [M+H]+
m/z	relative intensity
57.0713	7
71.0864	26
75.0453	9
85.1022	31
93.0555	11
98.9762	6
112.9917	12
131.0025	59
177.1231	17
177.6239	3
178.1308	298
178.6326	65
179.1327	9
187.1363	28
187.6368	4
191.0214	5
205.0376	10
207.0335	5
215.149	18
215.6503	4
219.053	14
221.0492	4
223.0482	2
224.1548	25
224.6557	6
279.1999	4
281.216	47
282.2193	4
294.1704	3
296.1809	14
297.1842	12
311.1666	4
313.168	1
323.3151	5
328.2903	9
328.7925	5
329.2904	2
336.2799	999
336.7816	434
337.2827	121
337.7828	22
338.2769	26
338.7779	10
339.288	247
340.2497	28
341.2472	2
344.2659	10
344.7673	3
345.2661	19
345.7689	8
346.266	9
347.2648	1
355.253	91
356.2563	43
357.2548	3
369.2186	2
370.2193	22
371.224	79
372.2304	31
373.2285	6
385.2802	2
391.2268	3
401.258	117
402.2598	32
403.2581	4
405.2506	1
418.2389	2
431.3213	2
433.2484	2
447.296	3
455.1799	2
463.272	8
465.2722	9
467.2684	3
611.4904	11
612.4835	14
613.4856	4
657.5665	18
658.5664	7
671.549	7
672.5517	3
682.5211	3
686.5195	8
687.5201	31
688.5234	13
689.5231	19
690.5265	8
691.5202	9
692.5236	3
717.5552	3
771.4751	4
772.4754	2
