Mass spectrum: Estrone (E1); LC-ESI-QFT; MS2; CE: 30eV;  [M+H]+
Name: Estrone (E1)
Class: NA
Formula: C18H22O2
Exact mass: 270.16198
SMILES: [H][C@@]12CCC(=O)[C@@]1(C)CC[C@]1([H])C3=C(CC[C@@]21[H])C=C(O)C=C3
InChI: InChI=1S/C18H22O2/c1-18-9-8-14-13-5-3-12(19)10-11(13)2-4-15(14)16(18)6-7-17(18)20/h3,5,10,14-16,19H,2,4,6-9H2,1H3/t14-,15-,16+,18+/m1/s1
Instrument: Q-Exactive Orbitrap, Thermo Scientfic; Ultimate 3000 HPLC, Thermo Scientfic
Instrument type: LC-ESI-QFT
Ms type: MS2
Ion mode: POSITIVE
Ionization: ESI
Collision energy: 30eV
Column name: Acquity CSHC18
Retention time: 9.995 min
Base peak: 271.1693
Precursor m/z: 271.1693
Precursor type: [M+H]+
Precursor intensity: 154
m/z	relative intensity
54.3139	2
67.0548	4
67.6539	2
69.0705	2
71.0497	34
72.045	147
74.9364	2
79.0546	3
79.4117	2
81.0704	74
85.0653	25
91.0547	2
93.0704	33
93.9701	2
95.0859	10
100.8922	2
104.9189	2
105.0702	4
107.0495	14
107.0859	44
109.1015	15
111.0807	11
121.0651	18
121.1015	3
125.0961	4
133.0649	512
134.0682	16
137.0617	2
143.5675	2
145.0648	37
145.1012	6
145.2039	2
147.0803	13
156.2908	2
157.0648	524
158.0681	22
159.0805	486
159.1168	11
160.0838	14
161.0957	4
165.9778	4
169.0616	2
171.0807	18
173.0961	36
175.0751	4
183.0804	49
185.0962	21
197.0961	255
198.1046	4
201.1275	123
202.1314	6
211.1116	52
212.1156	3
213.1275	157
214.1314	6
225.1272	15
237.343	2
253.1585	999
254.162	60
271.0029	5
271.1692	269
272.1726	18
