Mass spectrum: 3-Indolepropionic acid; LC-ESI-ITFT; MS2; CE: 45eV;  [M+H]+
Name: 3-Indolepropionic acid
Class: auxin
Formula: C11H11NO2
Exact mass: 189.0790
SMILES: C1=CC=C2C(=C1)C(=CN2)CCC(=O)O
InChI: InChI=1S/C11H11NO2/c13-11(14)6-5-8-7-12-10-4-2-1-3-9(8)10/h1-4,7,12H,5-6H2,(H,13,14)
Instrument: LTQ Orbitrap XL, Thermo Scientfic; Dionex Ultimate 300
Instrument type: LC-ESI-ITFT
Ms type: MS2
Ion mode: POSITIVE
Ionization: ESI
Collision energy: 45eV
Column name: Alltima C18
Retention time: 15.31 min
Base peak: 190.0863
Precursor m/z: 190.0863
Precursor type: [M+H]+
m/z	relative intensity
129.9525	999
162.0134	1
