Mass spectrum: N-Oleoylethanolamine; LC-ESI-QTOF; MS2; CE: 20-40eV;  [M+H]+
Name: N-Oleoylethanolamine
Class: Fatty acid
Formula: C20H39NO2
Exact mass: 325.2981
SMILES: CCCCCCCCC(=C(CCCCCCCC(=NCCO)O)[H])[H]
InChI: InChI=1S/C20H39NO2/c1-2-3-4-5-6-7-8-9-10-11-12-13-14-15-16-17-20(23)21-18-19-22/h9-10,22H,2-8,11-19H2,1H3,(H,21,23)
Instrument: Impact II, Bruker; Dionex 3000, Thermo Scientific
Instrument type: LC-ESI-QTOF
Ms type: MS2
Ion mode: POSITIVE
Ionization: ESI
Collision energy: 20-40eV
Column name: Acquity CSHC18
Retention time: 23.337 min
Base peak: 326.3038
Precursor m/z: 326.3038
Precursor type: [M+H]+
Precursor intensity: 23923.5
m/z	relative intensity
95.0838	430
97.1007	254
111.1141	112
121.0979	176
135.1147	170
179.1828	94
197.1164	116
219.1688	119
247.2423	119
308.2921	766
309.2798	840
310.2855	148
311.2786	101
326.3036	999
326.3787	359
