Mass spectrum: L-ornithine; LC-ESI-QTOF; MS2; CE: 15.00;  [M+H]+
Name: L-ornithine
Class: NA
Formula: C5H12N2O2
Exact mass: 132.0899
SMILES: C(CC(C(=O)O)N)CN
InChI: InChI=1S/C5H12N2O2/c6-3-1-2-4(7)5(8)9/h4H,1-3,6-7H2,(H,8,9)
Instrument: Bruker MicrOTOF-Q
Instrument type: LC-ESI-QTOF
Ms type: MS2
Ion mode: POSITIVE
Ionization: ESI
Collision energy: 15.00
Column name: Acquity CSHC18
Retention time: NA
Base peak: 133.0972
Precursor m/z: 133.0972
Precursor type: [M+H]+
m/z	relative intensity
116.0691	999
116.1223	196
117.0565	189
