Mass spectrum: Dopamine; ESI-TOF; MS2; CE: 6.0000000;  [M+H]+
Name: Dopamine
Class: NA
Formula: C8H11NO2
Exact mass: 153.07898
SMILES: NCCC1=CC=C(O)C(O)=C1
InChI: InChI=1S/C8H11NO2/c9-4-3-6-1-2-7(10)8(11)5-6/h1-2,5,10-11H,3-4,9H2
Instrument: waters xevo g2 TOF
Instrument type: ESI-TOF
Ms type: MS2
Ion mode: POSITIVE
Ionization: ESI
Collision energy: 6.0000000
Column name: Acquity CSHC18
Retention time: 0.563 min
Base peak: 154.08698
Precursor m/z: 154.08698
Precursor type: [M+H]+
m/z	relative intensity
81.0708	1
91.0551	171
92.0584	12
109.0295	33
110.0519	2
113.9646	12
118.0871	1
119.0499	356
120.0533	33
121.0578	1
137.7931	549
140.0689	7
143.9602	4
151.076	250
154.0819	999
155.0844	93
