Mass spectrum: 12-Oxo-phytodienoic acid; LC-ESI-QTOF; MS2; CE: 50eV;  [M-H]-
Name: 12-Oxo-phytodienoic acid
Class: Fatty acid derivative
Formula: C18H28O3
Exact mass: 292.2038
SMILES: CCC=CCC1C(C=CC1=O)CCCCCCCC(=O)O
InChI: InChI=1S/C18H28O3/c1-2-3-7-11-16-15(13-14-17(16)19)10-8-5-4-6-9-12-18(20)21/h3,7,13-16H,2,4-6,8-12H2,1H3,(H,20,21)
Instrument: TIMS-TOF Pro, Bruker Daltonik; Elute UHPLC System, Bruker Daltonik
Instrument type: LC-ESI-QTOF
Ms type: MS2
Ion mode: NEGATIVE
Ionization: ESI
Collision energy: 50eV
Column name: Acquity CSHC18
Retention time: 10.392 min
Base peak: 291.1921
Precursor m/z: 291.1921
Precursor type: [M-H]-
Precursor intensity: 34790.25
m/z	relative intensity
71.0127	21
108.724	23
109.2623	21
125.0589	22
148.0862	52
148.8721	21
150.102	27
151.1101	26
165.1251	77
175.1074	26
182.1902	23
247.2018	115
248.2062	44
273.1822	46
274.1838	25
291.1955	999
