Mass spectrum: C18:1 Ceramide (d18:1/18:1(9Z)); ESI-TOF; MS2; CE: 6.0000000;  [M+H]+
Name: C18:1 Ceramide (d18:1/18:1(9Z))
Class: NA
Formula: C36H69NO3
Exact mass: 563.52775
SMILES: [H]OC([H])([H])C([H])(N([H])C(=O)C([H])([H])C([H])([H])C([H])([H])C([H])([H])C([H])([H])C([H])([H])C([H])([H])C([H])=C([H])C([H])([H])C([H])([H])C([H])([H])C([H])([H])C([H])([H])C([H])([H])C([H])([H])C([H])([H])[H])C([H])(O[H])C([H])=C([H])C([H])([H])C([H])([H])C([H])([H])C([H])([H])C([H])([H])C([H])([H])C([H])([H])C([H])([H])C([H])([H])C([H])([H])C([H])([H])C([H])([H])C([H])([H])[H]
InChI: InChI=1S/C36H69NO3/c1-3-5-7-9-11-13-15-17-18-20-22-24-26-28-30-32-36(40)37-34(33-38)35(39)31-29-27-25-23-21-19-16-14-12-10-8-6-4-2/h17-18,29,31,34-35,38-39H,3-16,19-28,30,32-33H2,1-2H3,(H,37,40)
Instrument: waters xevo g2 TOF
Instrument type: ESI-TOF
Ms type: MS2
Ion mode: POSITIVE
Ionization: ESI
Collision energy: 6.0000000
Column name: Acquity CSHC18
Retention time: 10.962 min
Base peak: 564.53575
Precursor m/z: 564.53575
Precursor type: [M+H]+
m/z	relative intensity
125.9862	5
129.9801	3
264.2688	5
270.7261	2
277.7347	18
278.2361	6
283.7349	30
284.2359	5
288.7371	9
289.2389	2
292.7401	18
293.2405	4
298.2454	2
301.7451	70
302.2471	21
302.7522	18
303.2538	5
361.2395	1
403.1465	1
520.5095	24
521.5119	9
528.5137	20
529.518	6
537.3953	62
538.522	4
539.3983	4
546.5249	999
547.5283	420
548.531	90
549.5334	12
554.3745	4
555.3698	2
558.948	28
559.45	23
559.953	9
560.4849	24
561.5053	9
564.5353	595
565.5382	256
