Mass spectrum: Gluconasturtiin; LC-ESI-QTOF; MS2; CE: 18.31;  [M-O3S+H]+
Name: Gluconasturtiin
Class: NA
Formula: C15H21NO9S2
Exact mass: 423.0658
SMILES: C1=CC=C(C=C1)CCC(=NOS(=O)(=O)O)SC2C(C(C(C(O2)CO)O)O)O
InChI: InChI=1S/C15H21NO9S2/c17-8-10-12(18)13(19)14(20)15(24-10)26-11(16-25-27(21,22)23)7-6-9-4-2-1-3-5-9/h1-5,10,12-15,17-20H,6-8H2,(H,21,22,23)
Instrument: Bruker MicrOTOF-Q
Instrument type: LC-ESI-QTOF
Ms type: MS2
Ion mode: POSITIVE
Ionization: ESI
Collision energy: 18.31
Column name: Acquity CSHC18
Retention time: NA
Base peak: 344.1162
Precursor m/z: 344.1162
Precursor type: [M-O3S+H]+
m/z	relative intensity
115.0526	6
116.0543	3
127.0369	6
130.0034	3
130.0639	424
131.0697	41
132.0851	2
136.02	8
145.0465	11
147.026	3
148.077	11
149.0426	78
150.0421	10
151.0402	2
164.0548	37
165.0551	5
181.9334	1
181.9639	1
182.0641	999
183.0662	112
184.0611	29
