Mass spectrum: Isorhamnetin; LC-ESI-QTOF; MS2; CE: 35;  [M-H]-
Name: Isorhamnetin
Class: NA
Formula: C16H12O7
Exact mass: 316.0583
SMILES: COC1=C(C=CC(=C1)C2=C(C(=O)C3=C(C=C(C=C3O2)O)O)O)O
InChI: InChI=1S/C16H12O7/c1-22-11-4-7(2-3-9(11)18)16-15(21)14(20)13-10(19)5-8(17)6-12(13)23-16/h2-6,17-19,21H,1H3
Instrument: Bruker MicrOTOF-Q
Instrument type: LC-ESI-QTOF
Ms type: MS2
Ion mode: NEGATIVE
Ionization: ESI
Collision energy: 35
Column name: Acquity CSHC18
Retention time: NA
Base peak: 315.0512
Precursor m/z: 315.0512
Precursor type: [M-H]-
m/z	relative intensity
107.0101	240
108.0178	364
148.0142	244
183.0449	330
187.0364	341
199.0361	490
211.0386	231
215.0337	410
227.0345	596
243.0303	673
255.031	999
271.0261	775
283.0241	260
