Mass spectrum: 16,16-dimethyl Prostaglandin E1; ESI-TOF; MS2; CE: 6.0000000;  [M+H]+
Name: 16,16-dimethyl Prostaglandin E1
Class: NA
Formula: C22H38O5
Exact mass: 382.27192
SMILES: CCCCC(C)(C)C(O)\C=C\[C@H]1C(O)CC(=O)C1CCCCCCC(=O)O
InChI: InChI=1S/C22H38O5/c1-4-5-14-22(2,3)20(25)13-12-17-16(18(23)15-19(17)24)10-8-6-7-9-11-21(26)27/h12-13,16-17,19-20,24-25H,4-11,14-15H2,1-3H3,(H,26,27)/b13-12+/t16?,17-,19?,20?/m1/s1
Instrument: waters xevo g2 TOF
Instrument type: ESI-TOF
Ms type: MS2
Ion mode: POSITIVE
Ionization: ESI
Collision energy: 6.0000000
Column name: Acquity CSHC18
Retention time: 4.138 min
Base peak: 383.27992
Precursor m/z: 383.27992
Precursor type: [M+H]+
m/z	relative intensity
121.0654	5
135.1195	3
144.567	3
157.1017	1
159.1171	2
163.1105	8
175.1131	3
177.1469	10
187.1485	5
189.1457	6
191.1052	18
193.1151	5
194.1194	2
199.1109	7
207.1396	8
217.1413	24
219.1358	10
221.1167	12
235.1335	95
245.1904	14
247.1673	9
261.1867	5
263.1959	4
273.1842	10
287.2211	5
293.2471	43
294.2443	5
301.2537	14
303.2324	45
304.2675	9
305.2478	51
319.2639	24
320.267	7
321.2416	36
322.2438	6
326.376	5
327.2302	46
328.2321	9
329.248	912
330.2515	183
331.2533	20
345.2421	35
347.2586	999
348.2625	252
349.2621	37
365.2706	841
366.2721	185
367.2743	28
382.2878	6
383.2315	17
384.2424	138
384.7448	59
