Mass spectrum: 3,5-DIIODO-L-THYRONINE; LC-ESI-QFT; MS2; CE: 30eV;  [M+H]+
Name: 3,5-DIIODO-L-THYRONINE
Class: NA
Formula: C15H13I2NO4
Exact mass: 524.89340
SMILES: NC(CC1=CC(I)=C(OC2=CC=C(O)C=C2)C(I)=C1)C(O)=O
InChI: InChI=1S/C15H13I2NO4/c16-11-5-8(7-13(18)15(20)21)6-12(17)14(11)22-10-3-1-9(19)2-4-10/h1-6,13,19H,7,18H2,(H,20,21)
Instrument: Q-Exactive Orbitrap, Thermo Scientfic; Ultimate 3000 HPLC, Thermo Scientfic
Instrument type: LC-ESI-QFT
Ms type: MS2
Ion mode: POSITIVE
Ionization: ESI
Collision energy: 30eV
Column name: Acquity CSHC18
Retention time: 7.957 min
Base peak: 525.9007
Precursor m/z: 525.9007
Precursor type: [M+H]+
Precursor intensity: 151
m/z	relative intensity
198.0795	117
209.0647	124
225.0665	469
243.9501	524
335.9755	811
353.9844	999
