Mass spectrum: 3-(methylsulfinyl)propyl glucosinolate; LC-ESI-QTOF; MS2; CE: 50eV;  [M-H]-
Name: 3-(methylsulfinyl)propyl glucosinolate
Class: aliphatic glucosinolate
Formula: C11H21NO10S3
Exact mass: 423.0328
SMILES: CS(=O)CCCC(=NOS(=O)(=O)O)SC1C(C(C(C(O1)CO)O)O)O
InChI: InChI=1S/C11H21NO10S3/c1-24(17)4-2-3-7(12-22-25(18,19)20)23-11-10(16)9(15)8(14)6(5-13)21-11/h6,8-11,13-16H,2-5H2,1H3,(H,18,19,20)
Instrument: TIMS-TOF Pro, Bruker Daltonik; Elute UHPLC System, Bruker Daltonik
Instrument type: LC-ESI-QTOF
Ms type: MS2
Ion mode: NEGATIVE
Ionization: ESI
Collision energy: 50eV
Column name: Acquity CSHC18
Retention time: 2.439 min
Base peak: 422.0161
Precursor m/z: 422.0161
Precursor type: [M-H]-
Precursor intensity: 6465.22
m/z	relative intensity
74.9879	138
95.9506	760
96.9556	137
180.011	93
358.0206	167
422.0194	999
