Mass spectrum: N-20:4 L-Serine MeEster; ESI-TOF; MS2; CE: 0.6458333;  [M+H]+
Name: N-20:4 L-Serine MeEster
Class: NA
Formula: C24H39NO4
Exact mass: 405.28791
SMILES: [H]OC([H])([H])C([H])(C(=O)OC([H])([H])[H])N([H])C(=O)C([H])([H])C([H])([H])C([H])([H])C([H])=C([H])C([H])([H])C([H])=C([H])C([H])([H])C([H])=C([H])C([H])([H])C([H])=C([H])C([H])([H])C([H])([H])C([H])([H])C([H])([H])C([H])([H])[H]
InChI: InChI=1S/C24H39NO4/c1-3-4-5-6-7-8-9-10-11-12-13-14-15-16-17-18-19-20-23(27)25-22(21-26)24(28)29-2/h7-8,10-11,13-14,16-17,22,26H,3-6,9,12,15,18-21H2,1-2H3,(H,25,27)
Instrument: waters xevo g2 TOF
Instrument type: ESI-TOF
Ms type: MS2
Ion mode: POSITIVE
Ionization: ESI
Collision energy: 0.6458333
Column name: Acquity CSHC18
Retention time: 7.353 min
Base peak: 406.29591
Precursor m/z: 406.29591
Precursor type: [M+H]+
m/z	relative intensity
60.0451	20
67.055	40
79.0549	76
81.0705	104
83.0858	19
91.0548	167
93.0701	112
95.086	106
97.0658	11
102.0551	268
103.0572	11
105.0701	145
107.0859	40
109.1019	45
117.0699	64
119.0858	188
120.0658	999
121.1012	91
123.1178	12
129.0698	60
131.0857	104
133.1017	181
134.104	18
135.1162	46
143.0853	66
145.1014	79
147.117	89
149.096	24
156.0656	24
157.1006	78
159.1173	39
161.1323	46
163.1478	17
171.117	112
172.1192	15
173.1329	30
175.1485	49
177.1636	20
185.1327	88
186.135	10
187.1479	25
189.1643	62
198.6145	18
199.1488	43
201.1635	23
203.1795	151
204.1832	26
207.6203	124
213.1641	20
213.619	15
222.6253	253
223.1273	64
227.1783	14
245.2273	35
259.2418	26
267.1643	70
269.2268	135
270.2291	28
287.2373	142
288.24	20
289.2437	3
328.2616	14
346.2727	8
382.2051	373
383.2088	88
384.2186	17
388.2847	104
389.2886	26
398.1809	47
400.2168	47
406.2959	93
407.2973	19
