Mass spectrum: Beraprost (sodium salt); ESI-TOF; MS2; CE: 6.0000000;  [M+H]+
Name: Beraprost (sodium salt)
Class: NA
Formula: C24H29NaO5
Exact mass: 420.19127
SMILES: O[C@H]1C(/C=C/[C@@H](O)C(C)CC#CC)[C@@H](C(C=CC=C2CCCC([O-])=O)=C2O3)[C@@H]3C1.[Na+]
InChI: InChI=1S/C24H30O5.Na/c1-3-4-7-15(2)19(25)13-12-17-20(26)14-21-23(17)18-10-5-8-16(24(18)29-21)9-6-11-22(27)28;/h5,8,10,12-13,15,17,19-21,23,25-26H,6-7,9,11,14H2,1-2H3,(H,27,28);/q;+1/p-1/b13-12+;/t15?,17?,19-,20-,21+,23+;/m1./s1
Instrument: waters xevo g2 TOF
Instrument type: ESI-TOF
Ms type: MS2
Ion mode: POSITIVE
Ionization: ESI
Collision energy: 6.0000000
Column name: Acquity CSHC18
Retention time: 3.846 min
Base peak: 421.19927
Precursor m/z: 421.19927
Precursor type: [M+H]+
m/z	relative intensity
117.0706	2
119.0856	8
121.1025	82
145.1022	35
146.1065	5
157.1017	12
159.1177	25
160.1205	4
163.1127	18
177.1275	6
183.1181	16
201.0757	70
201.5772	23
210.095	151
217.0871	36
219.0841	22
229.0864	5
241.1235	11
243.0335	13
251.1101	11
253.1237	9
269.1179	48
270.1202	10
287.1279	28
291.138	39
292.1389	7
307.173	26
308.1723	10
309.1492	35
311.1587	8
345.1857	165
346.1879	92
361.1789	10
362.18	4
363.1963	913
364.1999	191
365.204	47
379.191	21
381.2072	442
382.2096	95
383.2206	23
395.2268	7
397.2049	6
405.2249	16
409.6746	3
416.2418	8
419.1526	25
421.2001	999
422.2031	325
