Mass spectrum: Caffeic aldehyde; LC-ESI-ITFT; MS2; CE: 45eV;  [M+H]+
Name: Caffeic aldehyde
Class: phenolic acid
Formula: C9H8O3
Exact mass: 164.0473
SMILES: C1=CC(=C(C=C1C=CC=O)O)O
InChI: InChI=1S/C9H8O3/c10-5-1-2-7-3-4-8(11)9(12)6-7/h1-6,11-12H
Instrument: LTQ Orbitrap XL, Thermo Scientfic; Dionex Ultimate 300
Instrument type: LC-ESI-ITFT
Ms type: MS2
Ion mode: POSITIVE
Ionization: ESI
Collision energy: 45eV
Column name: Alltima C18
Retention time: 14.77 min
Base peak: 165.0535
Precursor m/z: 165.0535
Precursor type: [M+H]+
m/z	relative intensity
118.9191	3
134.8653	1
146.8855	999
