Mass spectrum: Kaempferol; LC-ESI-QTOF; MS2; CE: 15.00;  [M-H]-
Name: Kaempferol
Class: NA
Formula: C15H10O6
Exact mass: 286.0477
SMILES: C1=CC(=CC=C1C2=C(C(=O)C3=C(C=C(C=C3O2)O)O)O)O
InChI: InChI=1S/C15H10O6/c16-8-3-1-7(2-4-8)15-14(20)13(19)12-10(18)5-9(17)6-11(12)21-15/h1-6,16-18,20H
Instrument: Bruker MicrOTOF-Q
Instrument type: LC-ESI-QTOF
Ms type: MS2
Ion mode: NEGATIVE
Ionization: ESI
Collision energy: 15.00
Column name: Acquity CSHC18
Retention time: NA
Base peak: 285.0405
Precursor m/z: 285.0405
Precursor type: [M-H]-
m/z	relative intensity
46.2338	133
53.0267	150
61.685	119
90.8858	88
95.4173	119
96.5473	119
104.4343	128
119.4153	119
131.9124	111
132.9982	119
145.0688	124
156.8858	97
157.4922	142
169.5135	115
184.5854	124
203.0957	93
212.0399	226
227.0382	142
229.0375	106
240.5838	119
243.0347	137
266.7615	124
269.7018	93
271.1382	88
277.87	93
281.9925	88
284.1118	124
284.4363	106
284.7281	88
285.0402	999
286.0407	372
299.5185	106
322.1378	150
355.0897	88
359.3827	102
373.3582	93
392.4433	88
399.5018	186
429.9374	155
474.7967	133
489.2966	128
515.9601	137
534.8566	97
558.9849	88
570.9225	142
662.6138	119
698.824	146
724.7046	137
779.1118	106
859.9536	93
865.2717	93
887.5291	137
888.023	159
960.0618	93
969.2916	106
