Mass spectrum: CORTISOL; LC-ESI-QTOF; MS2; CE: 20;  [M+H]+
Name: CORTISOL
Class: NA
Formula: C21H30O5
Exact mass: 362.20932
SMILES: [H][C@@]12CC[C@@](O)(C(=O)CO)[C@@]1(C)C[C@H](O)[C@@]1([H])[C@@]2([H])CCC2=CC(=O)CC[C@]12C
InChI: InChI=1S/C21H30O5/c1-19-7-5-13(23)9-12(19)3-4-14-15-6-8-21(26,17(25)11-22)20(15,2)10-16(24)18(14)19/h9,14-16,18,22,24,26H,3-8,10-11H2,1-2H3/t14-,15-,16-,18+,19-,20-,21+/m0/s1
Instrument: Agilent 6530Â Q-TOF LC/MS
Instrument type: LC-ESI-QTOF
Ms type: MS2
Ion mode: POSITIVE
Ionization: ESI
Collision energy: 20
Column name: NA
Retention time: 0.200 min
Base peak: 363.21487
Precursor m/z: 363.21487
Precursor type: [M+H]+
Precursor intensity: 37.5
m/z	relative intensity
41.0465	22
43.0438	23
45.0366	23
49.037	23
50.0151	24
51.0212	24
53.0426	24
55.0544	24
57.0562	24
59.056	24
65.038	24
66.0425	24
67.0688	24
69.0665	24
71.0579	24
75.054	24
77.0557	24
79.0786	25
81.0787	25
83.0777	25
85.0561	25
91.0816	25
93.0854	25
95.0902	25
97.1134	25
97.2823	25
97.4651	25
98.0838	25
99.0738	25
101.0747	25
103.0549	26
105.1071	26
106.067	26
107.1024	26
109.1225	26
109.2782	27
109.9262	27
110.0765	27
111.0799	27
113.0638	27
115.0746	27
116.0603	27
117.0968	28
119.1085	28
119.5374	28
120.0831	28
120.734	28
121.539	28
122.5926	28
122.7259	28
123.1455	29
123.5271	29
124.0837	30
125.083	30
125.2786	31
127.0715	31
128.0781	31
129.0984	32
130.0836	32
131.1181	32
132.0981	33
133.1177	33
133.5214	33
134.0716	33
135.1255	33
135.2788	33
135.4521	34
137.1047	34
139.0814	34
141.096	35
142.0951	35
143.1217	36
143.3309	37
144.1038	37
145.1574	39
145.7666	39
146.1232	41
146.2583	41
147.1812	42
147.4606	42
147.565	43
147.8348	43
148.1078	43
149.1314	43
150.1023	44
151.1081	46
152.0936	46
153.0978	46
154.0922	47
155.1076	48
156.1049	48
157.1437	49
157.4459	50
157.5943	50
157.6842	50
158.1091	50
159.1667	51
159.4741	51
159.6334	51
159.7565	52
160.1173	52
161.1285	52
162.1121	52
162.2106	52
163.1353	53
164.1287	54
165.1067	54
166.0876	56
167.1121	56
168.0952	56
169.1334	56
169.6331	57
170.0813	57
171.1518	58
172.1392	58
173.1945	59
173.4349	59
173.8465	61
174.1149	62
175.1411	64
176.1285	65
177.1377	66
178.0772	67
179.1226	68
180.102	68
181.1302	68
182.1227	69
183.1451	70
184.1236	70
185.1516	70
185.7057	72
186.1472	74
187.1604	74
188.1229	75
189.158	75
190.1288	75
191.1179	78
192.1016	80
193.1356	80
194.1245	85
195.14	86
196.1219	90
197.1546	90
198.1336	92
199.1594	93
200.1312	93
201.15	94
203.1464	94
204.1032	95
205.1444	96
206.1059	96
207.1439	97
208.1391	98
209.1656	104
210.1614	104
211.1555	105
212.1435	108
213.1631	111
214.1432	114
214.9071	115
215.1634	115
216.1271	116
217.1435	116
218.1074	117
219.1497	123
220.1264	129
221.1608	133
222.1463	134
223.1725	134
224.1453	143
225.1719	144
225.4859	149
225.7656	155
225.9078	157
226.1533	165
227.1715	167
228.1659	170
229.1756	173
230.1005	177
231.1624	186
232.1262	187
233.1577	187
234.1564	188
235.166	190
236.1338	190
237.1653	200
238.146	200
239.1775	206
239.683	211
240.1668	216
241.2204	216
241.4653	223
241.9687	226
242.1872	226
243.1961	230
244.122	233
244.7851	240
245.1618	241
246.1589	247
247.1535	253
248.1411	257
249.1894	269
250.172	290
251.2019	297
251.3972	302
252.1657	313
253.1951	315
254.1718	315
255.1688	321
257.1822	324
258.1574	333
259.1436	340
261.168	341
262.1275	344
263.2003	346
264.1496	358
265.2032	360
266.1887	369
267.2136	370
267.4947	376
267.7863	377
268.217	380
268.6024	411
269.2535	414
270.1916	427
271.1864	435
273.1909	436
275.1363	438
276.1544	439
276.8692	457
278.1819	460
279.2153	470
280.1354	476
281.2464	482
281.7877	490
283.1796	508
284.1835	513
285.2036	518
286.2111	523
287.2155	539
288.1827	542
291.2164	550
294.1726	551
296.1764	562
297.2376	570
298.1694	570
299.227	588
301.1931	588
303.1956	655
309.243	686
309.6009	711
309.7925	741
310.181	752
312.1828	841
315.2229	841
317.2102	877
327.2612	898
327.51	999
327.868	22
327.9769	23
328.1915	23
345.2515	23
363.3252	24
363.8607	24
364.2479	24
365.1399	24
