Mass spectrum: D-Ribopyranose; LC-ESI-QTOF; MS2; CE: -10, -35, -60V;  [M-H]-
Name: D-Ribopyranose
Class: NA
Formula: C5H10O5
Exact mass: 150.0528
SMILES: C1C(C(C(C(O1)O)O)O)O
InChI: InChI=1S/C5H10O5/c6-2-1-10-5(9)4(8)3(2)7/h2-9H,1H2
Instrument: TripleToF 5600; Sciex
Instrument type: LC-ESI-QTOF
Ms type: MS2
Ion mode: NEGATIVE
Ionization: ESI
Collision energy: -10, -35, -60V
Column name: Acquity CSHC18
Retention time: 0.693 min
Base peak: 149.0468
Precursor m/z: 149.0468
Precursor type: [M-H]-
Precursor intensity: 116002.1
m/z	relative intensity
76.9706	999
99.928	279
117.0244	139
142.9255	558
149.0462	423
