Mass spectrum: D-Sucrose; LC-ESI-QTOF; MS2; CE: 18.23;  [M-H2O+H]+
Name: D-Sucrose
Class: NA
Formula: C12H22O11
Exact mass: 342.1162
SMILES: C(C1C(C(C(C(O1)OC2(C(C(C(O2)CO)O)O)CO)O)O)O)O
InChI: InChI=1S/C12H22O11/c13-1-4-6(16)8(18)9(19)11(21-4)23-12(3-15)10(20)7(17)5(2-14)22-12/h4-11,13-20H,1-3H2
Instrument: Bruker MicrOTOF-Q
Instrument type: LC-ESI-QTOF
Ms type: MS2
Ion mode: POSITIVE
Ionization: ESI
Collision energy: 18.23
Column name: Acquity CSHC18
Retention time: NA
Base peak: 325.1129
Precursor m/z: 325.1129
Precursor type: [M-H2O+H]+
m/z	relative intensity
85.03	59
97.03	173
103.04	41
109.03	173
110.03	29
111.04	25
115.04	71
116.03	29
127.04	635
128.04	47
139.03	24
145.05	999
146.05	105
147.05	32
163.06	266
164.08	30
175.06	43
181.07	30
247.06	25
307.75	25
