Mass spectrum: Quinolinic acid; LC-ESI-ITFT; MS2; CE: 60;  [M-H]-
Name: Quinolinic acid
Class: Organoheterocyclic compounds; Pyridines and derivatives; Pyridinecarboxylic acids and derivatives
Formula: C7H5NO4
Exact mass: 167.02186
SMILES: OC(=O)C1=CC=CN=C1C(O)=O
InChI: InChI=1S/C7H5NO4/c9-6(10)4-2-1-3-8-5(4)7(11)12/h1-3H,(H,9,10)(H,11,12)
Instrument: Thermo Scientific Q-Exactive Focus
Instrument type: LC-ESI-ITFT
Ms type: MS2
Ion mode: NEGATIVE
Ionization: ESI
Collision energy: 60
Column name: Acquity CSHC18
Retention time: 2.026 min
Base peak: 166.01459
Precursor m/z: 166.01459
Precursor type: [M-H]-
m/z	relative intensity
56.0052	915
80.31	862
83.098	990
87.9086	915
87.9745	921
97.0704	941
105.8638	942
111.6025	892
133.7024	999
134.0061	851
