Mass spectrum: Fraxetin; LC-ESI-QTOF; MS2; CE: 50eV;  [M-H]-
Name: Fraxetin
Class: Coumarin
Formula: C10H8O5
Exact mass: 208.0372
SMILES: COC1=C(C(=C2C(=C1)C=CC(=O)O2)O)O
InChI: InChI=1S/C10H8O5/c1-14-6-4-5-2-3-7(11)15-10(5)9(13)8(6)12/h2-4,12-13H,1H3
Instrument: TIMS-TOF Pro, Bruker Daltonik; Elute UHPLC System, Bruker Daltonik
Instrument type: LC-ESI-QTOF
Ms type: MS2
Ion mode: NEGATIVE
Ionization: ESI
Collision energy: 50eV
Column name: Acquity CSHC18
Retention time: 4.711 min
Base peak: 207.0272
Precursor m/z: 207.0272
Precursor type: [M-H]-
Precursor intensity: 19677.69
m/z	relative intensity
40.9803	5
63.0226	6
65.0018	18
80.0264	16
91.015	5
107.0115	7
108.0202	54
109.0238	9
119.0122	29
120.0189	9
121.0229	4
136.0154	12
164.0103	51
174.9997	5
192.0033	999
193.0075	57
207.0272	30
