Mass spectrum: Creatine; LC-ESI-ITFT; MS2; CE: 30;  [M-H]-
Name: Creatine
Class: Organic acids and derivatives; Carboxylic acids and derivatives; Amino acids, peptides, and analogues
Formula: C4H9N3O2
Exact mass: 131.06948
SMILES: CN(CC(O)=O)C(N)=N
InChI: InChI=1S/C4H9N3O2/c1-7(4(5)6)2-3(8)9/h2H2,1H3,(H3,5,6)(H,8,9)
Instrument: Thermo Scientific Q-Exactive Focus
Instrument type: LC-ESI-ITFT
Ms type: MS2
Ion mode: NEGATIVE
Ionization: ESI
Collision energy: 30
Column name: Acquity CSHC18
Retention time: 0.930 min
Base peak: 130.06219
Precursor m/z: 130.06219
Precursor type: [M-H]-
m/z	relative intensity
61.9872	328
78.5286	56
88.0392	999
93.103	66
99.1229	54
113.3648	57
114.3089	61
117.8956	60
135.5149	57
137.9017	62
