Mass spectrum: 7-keto abietaquinone; ESI-QTOF; MS2; CE: -55V;  [M-H]-
Name: 7-keto abietaquinone
Class: phenolic diterpene
Formula: C20H26O3
Exact mass: 314.1882
SMILES: CC(C)C(C(C1=O)=O)=CC2=C1C3(C)C(CC2=O)C(C)(C)CCC3
InChI: InChI=1S/C20H26O3/c1-11(2)12-9-13-14(21)10-15-19(3,4)7-6-8-20(15,5)16(13)18(23)17(12)22/h9,11,15H,6-8,10H2,1-5H3
Instrument: TripleToF 5600, Sciex
Instrument type: ESI-QTOF
Ms type: MS2
Ion mode: NEGATIVE
Ionization: ESI
Collision energy: -55V
Column name: Acquity CSHC18
Retention time: 13.126 min
Base peak: 313.1868
Precursor m/z: 313.1868
Precursor type: [M-H]-
Precursor intensity: 614102
m/z	relative intensity
65.039	2
115.059	15
117.0358	11
128.0605	5
130.0409	10
141.0713	8
143.0532	42
145.0269	14
155.0522	13
156.0592	22
157.0624	31
158.0369	24
159.0447	16
169.0304	6
169.0708	10
170.0781	5
171.0478	149
172.0517	42
173.0196	16
173.053	17
174.0292	14
182.041	21
183.0422	23
184.0558	57
185.0299	33
185.0626	136
186.0355	24
186.0682	45
187.0786	14
189.055	3
197.0607	9
198.0706	11
199.0432	201
200.0522	170
201.0597	88
202.0657	24
203.0682	14
209.064	11
210.0673	4
211.0361	28
212.0462	48
213.0567	430
214.0633	295
215.0724	172
216.0817	75
217.0892	52
225.0898	13
226.1012	7
227.0765	76
227.0999	65
228.0816	77
229.0889	433
230.0877	141
231.0973	51
232.1113	7
240.0819	3
241.0912	14
242.1005	15
243.1031	184
244.1121	208
245.1166	54
256.1149	5
257.1189	66
258.1203	13
283.1348	16
284.1404	10
285.1502	125
286.1474	28
287.1607	4
299.1648	106
300.174	91
301.1824	13
314.1934	38
315.1925	827
316.2133	999
317.2131	331
