Mass spectrum: [3,4,5-trihydroxy-6-(2,3,4-trihydroxy-3-methylbutoxy)oxan-2-yl]methyl 3-(4-hydroxy-3,5-dimethoxyphenyl)prop-2-enoate; LC-ESI-QTOF; MS2; CE: 20-40eV;  [M+H]+
Name: [3,4,5-trihydroxy-6-(2,3,4-trihydroxy-3-methylbutoxy)oxan-2-yl]methyl 3-(4-hydroxy-3,5-dimethoxyphenyl)prop-2-enoate
Class: Hydroxycinnamic acids and derivatives
Formula: C22H32O13
Exact mass: 504.1843
SMILES: CC(CO)(C(COC1C(C(C(C(COC(C=CC2=CC(=C(C(=C2)OC)O)OC)=O)O1)O)O)O)O)O
InChI: InChI=1S/C22H32O13/c1-22(30,10-23)15(24)9-34-21-20(29)19(28)18(27)14(35-21)8-33-16(25)5-4-11-6-12(31-2)17(26)13(7-11)32-3/h4-7,14-15,18-21,23-24,26-30H,8-10H2,1-3H3
Instrument: Impact II, Bruker; Dionex 3000, Thermo Scientific
Instrument type: LC-ESI-QTOF
Ms type: MS2
Ion mode: POSITIVE
Ionization: ESI
Collision energy: 20-40eV
Column name: Acquity CSHC18
Retention time: 4.300 min
Base peak: 505.1926
Precursor m/z: 505.1926
Precursor type: [M+H]+
Precursor intensity: 11312
m/z	relative intensity
119.0489	17
122.0584	18
138.0894	19
145.0262	19
147.0445	20
150.0543	22
156.1156	22
166.0839	24
168.0649	25
175.0392	25
176.0425	29
177.0549	30
200.1197	34
207.0655	45
208.0674	51
209.6267	57
225.0755	79
251.0924	83
302.127	96
309.0927	100
343.1075	105
351.109	119
369.1187	145
370.1215	157
441.1326	330
504.2478	999
505.1534	17
