Mass spectrum: Uvaol; ESI-TOF; MS2; CE: 0.6458333;  [M+H]+
Name: Uvaol
Class: NA
Formula: C30H50O2
Exact mass: 442.38108
SMILES: CC1CCC2(CO)CCC3(C)C(=CCC4C5(C)CCC(O)C(C)(C)C5CCC34C)C2C1C
InChI: InChI=1S/C30H50O2/c1-19-10-15-30(18-31)17-16-28(6)21(25(30)20(19)2)8-9-23-27(5)13-12-24(32)26(3,4)22(27)11-14-29(23,28)7/h8,19-20,22-25,31-32H,9-18H2,1-7H3
Instrument: waters xevo g2 TOF
Instrument type: ESI-TOF
Ms type: MS2
Ion mode: POSITIVE
Ionization: ESI
Collision energy: 0.6458333
Column name: Acquity CSHC18
Retention time: 6.978 min
Base peak: 443.38908
Precursor m/z: 443.38908
Precursor type: [M+H]+
m/z	relative intensity
67.0552	24
69.0708	64
77.0394	4
79.055	52
80.0593	1
81.0706	179
83.0862	43
91.0548	64
93.0704	50
95.0861	638
96.0894	10
97.1018	9
105.0704	155
106.074	10
107.086	346
108.0285	5
109.1017	435
110.1051	7
111.1172	20
117.0703	3
119.0861	55
120.0898	1
121.1016	541
122.1051	13
123.1172	177
124.1208	2
125.0963	29
133.1016	204
135.1173	383
136.1207	35
137.1329	75
139.1121	63
140.1156	1
143.0862	1
145.1016	8
146.1057	3
147.0994	202
148.121	17
150.1363	15
153.1278	1
157.1016	2
159.1174	14
160.1218	2
161.1328	39
162.1366	14
163.1484	59
164.152	22
165.1632	7
173.1326	18
174.1381	3
175.1484	26
176.1519	3
177.1642	37
178.1675	7
179.1433	14
180.146	1
187.1485	22
189.1641	34
191.1799	999
192.1832	126
193.1599	4
201.1642	20
203.1798	60
204.1832	10
205.1954	30
206.1991	12
207.1748	17
209.1897	1
215.1798	58
217.1954	355
218.1988	67
221.1902	66
222.1935	3
229.1954	8
231.2111	15
233.1905	12
235.206	164
236.2094	18
237.2129	1
243.2105	4
245.2269	14
249.2214	14
255.2113	2
257.2265	3
258.2299	1
261.2217	6
263.2371	11
269.2266	3
271.2426	3
273.2572	1
283.2429	11
285.2583	4
287.2391	1
297.2748	17
299.2727	2
303.2682	1
311.2738	5
315.2696	8
329.2032	18
330.2878	5
331.2991	1
341.2853	5
393.3524	4
394.3547	1
395.3677	9
396.3714	4
397.3827	10
407.3679	154
408.371	10
411.3635	18
412.3668	5
413.3781	9
414.3815	10
415.3835	1
425.3783	343
426.3815	28
427.3846	9
439.3582	18
440.3613	5
443.3889	41
444.3923	20
