Mass spectrum: martynoside; LC-ESI-ITFT; MS2; CE: 0.3;  [M-H]-
Name: martynoside
Class: phenylpropanoid glycosides
Formula: C31H40O15
Exact mass: 652.2367
SMILES: CC1C(C(C(C(O1)OC2C(C(OC(C2OC(=O)C=CC3=CC(=C(C=C3)O)OC)CO)OCCC4=CC(=C(C=C4)OC)O)O)O)O)O
InChI: InChI=1S/C31H40O15/c1-15-24(36)25(37)26(38)31(43-15)46-29-27(39)30(42-11-10-17-5-8-20(40-2)19(34)12-17)44-22(14-32)28(29)45-23(35)9-6-16-4-7-18(33)21(13-16)41-3/h4-9,12-13,15,22,24-34,36-39H,10-11,14H2,1-3H3
Instrument: LTQ-Orbitrap XL hybrid mass spectrometer (Thermo Scientific)
Instrument type: LC-ESI-ITFT
Ms type: MS2
Ion mode: NEGATIVE
Ionization: ESI
Collision energy: 0.3
Column name: Acquity CSHC18
Retention time: 6.860 min
Base peak: 651.2280
Precursor m/z: 651.2280
Precursor type: [M-H]-
Precursor intensity: 13787110
m/z	relative intensity
172.5382	557
354.6036	483
475.1855	999
505.1738	480
520.5314	401
