Mass spectrum: Quercetin 3-rhamnoside; LC-ESI-QTOF; MS2; CE: 50eV;  [M+H]+
Name: Quercetin 3-rhamnoside
Class: Flavonol
Formula: C21H20O11
Exact mass: 448.1006
SMILES: CC1C(C(C(C(O1)OC2=C(OC3=CC(=CC(=C3C2=O)O)O)C4=CC(=C(C=C4)O)O)O)O)O
InChI: InChI=1S/C21H20O11/c1-7-15(26)17(28)18(29)21(30-7)32-20-16(27)14-12(25)5-9(22)6-13(14)31-19(20)8-2-3-10(23)11(24)4-8/h2-7,15,17-18,21-26,28-29H,1H3
Instrument: TIMS-TOF Pro, Bruker Daltonik; Elute UHPLC System, Bruker Daltonik
Instrument type: LC-ESI-QTOF
Ms type: MS2
Ion mode: POSITIVE
Ionization: ESI
Collision energy: 50eV
Column name: Acquity CSHC18
Retention time: 5.572 min
Base peak: 449.1039
Precursor m/z: 449.1039
Precursor type: [M+H]+
Precursor intensity: 16197.44
m/z	relative intensity
19.5663	13
27.1608	14
43.4651	24
55.0455	15
57.0336	81
68.5819	13
71.0503	202
72.0528	30
83.7937	12
85.0284	544
86.0306	16
103.0313	14
103.041	23
129.0546	480
130.0586	27
137.0234	36
145.0628	12
147.0628	57
153.0172	66
164.0142	11
165.0155	41
199.5553	5
201.0575	21
223.8682	18
229.0492	92
246.0466	11
257.0476	54
270.9856	12
302.0191	25
302.8524	31
302.9656	19
302.9987	135
303.0181	220
303.3303	13
303.5431	59
304.0519	999
304.5723	16
305.0542	89
305.7946	10
395.0728	10
