Mass spectrum: 13,14-dihydro-15-keto Prostaglandin E1; ESI-TOF; MS2; CE: 6.0000000;  [M+H]+
Name: 13,14-dihydro-15-keto Prostaglandin E1
Class: NA
Formula: C20H34O5
Exact mass: 354.24062
SMILES: CCCCCC(=O)CC[C@H]1C(O)CC(=O)C1CCCCCCC(=O)O
InChI: InChI=1S/C20H34O5/c1-2-3-6-9-15(21)12-13-17-16(18(22)14-19(17)23)10-7-4-5-8-11-20(24)25/h16-17,19,23H,2-14H2,1H3,(H,24,25)/t16?,17-,19?/m1/s1
Instrument: waters xevo g2 TOF
Instrument type: ESI-TOF
Ms type: MS2
Ion mode: POSITIVE
Ionization: ESI
Collision energy: 6.0000000
Column name: Acquity CSHC18
Retention time: 3.639 min
Base peak: 355.24862
Precursor m/z: 355.24862
Precursor type: [M+H]+
m/z	relative intensity
149.0602	3
159.1176	6
167.0718	21
174.1306	2
175.1483	7
179.0911	25
179.5921	3
187.1124	3
188.1064	46
188.5972	15
193.159	2
197.1015	135
197.6009	9
203.1433	7
204.1343	2
205.1221	28
217.6164	4
221.1532	3
255.2107	9
265.195	3
273.2203	42
274.2251	6
283.2054	17
291.2321	114
292.2345	21
301.2157	217
302.2191	43
303.2227	3
309.223	9
319.2272	999
320.2307	216
321.2329	22
333.1642	4
337.2407	904
338.2409	201
339.2433	23
