Mass spectrum: INDOXYL SULFATE; LC-ESI-QFT; MS2; CE: 30eV;  [M-H]-
Name: INDOXYL SULFATE
Class: NA
Formula: C8H7NO4S
Exact mass: 213.00958
SMILES: OS(=O)(=O)OC1=CNC2=CC=CC=C12
InChI: InChI=1S/C8H7NO4S/c10-14(11,12)13-8-5-9-7-4-2-1-3-6(7)8/h1-5,9H,(H,10,11,12)
Instrument: Q-Exactive Orbitrap, Thermo Scientfic; Ultimate 3000 HPLC, Thermo Scientfic
Instrument type: LC-ESI-QFT
Ms type: MS2
Ion mode: NEGATIVE
Ionization: ESI
Collision energy: 30eV
Column name: Acquity CSHC18
Retention time: 1.930 min
Base peak: 212.0023
Precursor m/z: 212.0023
Precursor type: [M-H]-
Precursor intensity: 128
m/z	relative intensity
53.8308	1
58.5897	1
61.4642	1
61.6684	1
63.3312	1
65.4081	1
72.3476	1
74.942	1
79.9557	942
80.9635	794
81.4759	1
81.9626	1
86.6424	1
92.0489	17
93.4915	1
103.226	1
108.9393	1
109.1287	1
115.8711	1
120.044	9
124.0951	1
132.044	406
133.0473	21
156.2458	1
193.7474	1
212.0015	999
213.0051	64
231.7188	1
