Mass spectrum: L-GULONOLACTONE; LC-ESI-QTOF; MS2; CE: 40;  [M-H]-
Name: L-GULONOLACTONE
Class: NA
Formula: C6H10O6
Exact mass: 178.04774
SMILES: C(C(C1C(C(C(=O)O1)O)O)O)O
InChI: InChI=1S/C6H10O6/c7-1-2(8)5-3(9)4(10)6(11)12-5/h2-5,7-10H,1H2
Instrument: Agilent 6530Â Q-TOF LC/MS
Instrument type: LC-ESI-QTOF
Ms type: MS2
Ion mode: NEGATIVE
Ionization: ESI
Collision energy: 40
Column name: NA
Retention time: 0.200 min
Base peak: 177.03816
Precursor m/z: 177.03816
Precursor type: [M-H]-
Precursor intensity: 117
m/z	relative intensity
41.0126	117
43.0254	133
44.9978	151
55.02	153
57.0005	184
58.0028	200
59.0359	274
71.0161	441
75.0042	999
