Mass spectrum: 3-NITRO-L-TYROSINE; LC-ESI-QFT; MS2; CE: 30eV;  [M+H]+
Name: 3-NITRO-L-TYROSINE
Class: NA
Formula: C9H10N2O5
Exact mass: 226.05897
SMILES: C1=CC(=C(C=C1CC(C(=O)O)N)[N+](=O)[O-])O
InChI: InChI=1S/C9H10N2O5/c10-6(9(13)14)3-5-1-2-8(12)7(4-5)11(15)16/h1-2,4,6,12H,3,10H2,(H,13,14)
Instrument: Q-Exactive Orbitrap, Thermo Scientfic; Ultimate 3000 HPLC, Thermo Scientfic
Instrument type: LC-ESI-QFT
Ms type: MS2
Ion mode: POSITIVE
Ionization: ESI
Collision energy: 30eV
Column name: Acquity CSHC18
Retention time: 1.860 min
Base peak: 227.0663
Precursor m/z: 227.0663
Precursor type: [M+H]+
Precursor intensity: 113
m/z	relative intensity
50.0619	3
50.9743	3
51.8035	3
52.4216	3
52.4232	4
53.8093	4
56.3315	3
63.0236	7
64.3354	4
65.0393	35
74.0243	8
79.0423	6
80.0501	31
81.0343	6
88.796	4
90.0345	40
90.9773	30
92.0501	20
104.05	18
105.0578	39
106.0418	98
107.061	8
107.1367	4
108.0448	40
109.0291	8
113.9642	9
117.0452	278
118.053	11
119.0611	18
120.0447	26
120.0573	7
122.0367	4
122.9466	5
130.0407	6
131.9749	6
133.0526	228
134.0558	8
135.0556	109
135.0681	24
136.0396	228
137.043	9
139.2911	4
145.0398	10
146.0478	31
146.053	4
148.0396	30
163.0504	64
164.0345	331
165.0382	11
168.0294	999
169.0326	51
182.0464	13
182.0586	39
182.0645	700
192.0291	33
209.056	18
210.0401	769
211.0437	39
227.0666	347
228.0706	17
