Mass spectrum: TYROSINE; LC-ESI-QFT; MS2; CE: 30eV;  [M+H]+
Name: TYROSINE
Class: NA
Formula: C9H11NO3
Exact mass: 181.07389
SMILES: N[C@@H](CC1=CC=C(O)C=C1)C(O)=O
InChI: InChI=1S/C9H11NO3/c10-8(9(12)13)5-6-1-3-7(11)4-2-6/h1-4,8,11H,5,10H2,(H,12,13)/t8-/m0/s1
Instrument: Q-Exactive Orbitrap, Thermo Scientfic; Ultimate 3000 HPLC, Thermo Scientfic
Instrument type: LC-ESI-QFT
Ms type: MS2
Ion mode: POSITIVE
Ionization: ESI
Collision energy: 30eV
Column name: Acquity CSHC18
Retention time: 0.816 min
Base peak: 182.0812
Precursor m/z: 182.0812
Precursor type: [M+H]+
Precursor intensity: 182
m/z	relative intensity
52.2694	1
72.9379	1
91.0548	39
95.0497	12
97.9693	2
103.0547	1
104.2362	1
107.0496	6
109.0656	1
113.9641	45
114.9487	2
116.9665	5
118.0656	1
119.0496	139
120.0529	4
121.0651	6
123.0444	303
124.0477	8
130.908	1
131.9746	27
132.9591	7
136.076	999
136.2568	1
137.06	4
137.0793	30
139.9824	11
141.481	1
141.9589	15
147.0443	157
148.0477	4
155.9751	11
156.9977	1
159.9693	15
165.0549	540
166.0582	18
177.9563	8
181.9028	1
182.0815	58
182.9025	4
183.0851	1
