Mass spectrum: CYTOSINE; LC-ESI-QFT; MS2; CE: 30eV;  [M+H]+
Name: CYTOSINE
Class: NA
Formula: C4H5N3O
Exact mass: 111.04326
SMILES: NC1=CC=NC(=O)N1
InChI: InChI=1S/C4H5N3O/c5-3-1-2-6-4(8)7-3/h1-2H,(H3,5,6,7,8)
Instrument: Q-Exactive Orbitrap, Thermo Scientfic; Ultimate 3000 HPLC, Thermo Scientfic
Instrument type: LC-ESI-QFT
Ms type: MS2
Ion mode: POSITIVE
Ionization: ESI
Collision energy: 30eV
Column name: Acquity CSHC18
Retention time: 0.541 min
Base peak: 112.0505
Precursor m/z: 112.0505
Precursor type: [M+H]+
Precursor intensity: 106
m/z	relative intensity
50.3065	2
52.019	6
52.7486	2
55.055	2
56.9655	6
63.5103	2
63.8149	2
66.1098	2
67.0297	22
67.0549	13
67.6793	2
68.0138	18
69.0454	327
70.0658	23
70.9424	9
70.9803	6
71.0246	13
71.93	4
71.9409	4
82.378	2
88.9529	5
88.9908	21
94.0405	116
95.0245	999
96.0216	3
96.0279	15
100.0249	10
100.4993	9
101.5159	3
102.0224	30
106.0045	3
107.0012	48
109.5045	30
113.0234	15
113.0481	60
113.0542	232
113.0601	7
113.071	3
117.685	3
118.0353	4
118.5098	3
120.0328	16
125.0117	12
130.0167	3
