Mass spectrum: cyanidin; LC-ESI-QTOF; MS2; CE: 15.00;  [M]+
Name: cyanidin
Class: NA
Formula: [C15H11O6]+
Exact mass: 287.0550
SMILES: C1=CC(=C(C=C1C2=[O+]C3=CC(=CC(=C3C=C2O)O)O)O)O
InChI: InChI=1S/C15H10O6/c16-8-4-11(18)9-6-13(20)15(21-14(9)5-8)7-1-2-10(17)12(19)3-7/h1-6H,(H4-,16,17,18,19,20)/p+1
Instrument: Bruker MicrOTOF-Q
Instrument type: LC-ESI-QTOF
Ms type: MS2
Ion mode: POSITIVE
Ionization: ESI
Collision energy: 15.00
Column name: Acquity CSHC18
Retention time: NA
Base peak: 287.0550
Precursor m/z: 287.0550
Precursor type: [M]+
m/z	relative intensity
149.0222	7
177.0163	4
185.0597	2
189.054	1
213.0554	5
217.0496	1
231.0645	37
232.0672	5
241.0472	3
258.0485	1
259.0606	4
269.0441	3
287.0546	999
287.4227	1
287.4879	1
287.5636	1
287.5802	1
287.7306	1
287.8315	1
287.9197	1
288.0578	147
289.0585	5
