Mass spectrum: Polydatin; LC-ESI-QTOF; MS2; CE: 21.68;  [M-H]-
Name: Polydatin
Class: NA
Formula: C20H22O8
Exact mass: 390.1315
SMILES: C1=CC(=CC=C1C=CC2=CC(=CC(=C2)OC3C(C(C(C(O3)CO)O)O)O)O)O
InChI: InChI=1S/C20H22O8/c21-10-16-17(24)18(25)19(26)20(28-16)27-15-8-12(7-14(23)9-15)2-1-11-3-5-13(22)6-4-11/h1-9,16-26H,10H2
Instrument: Bruker MicrOTOF-Q
Instrument type: LC-ESI-QTOF
Ms type: MS2
Ion mode: NEGATIVE
Ionization: ESI
Collision energy: 21.68
Column name: Acquity CSHC18
Retention time: NA
Base peak: 389.1242
Precursor m/z: 389.1242
Precursor type: [M-H]-
m/z	relative intensity
143.0487	27
157.0671	8
159.0824	24
181.0674	9
182.0757	8
183.0804	48
184.0532	9
185.0608	203
186.0637	28
209.0643	7
212.047	6
225.0565	77
226.0794	13
227.7793	999
229.0774	122
230.0789	6
