Mass spectrum: Syringaldehyde; LC-ESI-QTOF; MS2; CE: 50eV;  [M-H]-
Name: Syringaldehyde
Class: Benzaldehyde derivative
Formula: C9H10O4
Exact mass: 182.0579
SMILES: O=CC1=CC(OC)=C(O)C(OC)=C1
InChI: InChI=1S/C9H10O4/c1-12-7-3-6(5-10)4-8(13-2)9(7)11/h3-5,11H,1-2H3
Instrument: TIMS-TOF Pro, Bruker Daltonik; Elute UHPLC System, Bruker Daltonik
Instrument type: LC-ESI-QTOF
Ms type: MS2
Ion mode: NEGATIVE
Ionization: ESI
Collision energy: 50eV
Column name: Acquity CSHC18
Retention time: 5.218 min
Base peak: 181.0482
Precursor m/z: 181.0482
Precursor type: [M-H]-
Precursor intensity: 949.11
m/z	relative intensity
150.9988	999
165.9976	192
