Mass spectrum: 2-oxo-8(2-methyl-2,3-epoxybutanoyl)-guaia-3,10(14),11(13)-trien-6,12-olide; LC-ESI-ITFT; MS2; CE: 50eV;  [M+H]+
Name: 2-oxo-8(2-methyl-2,3-epoxybutanoyl)-guaia-3,10(14),11(13)-trien-6,12-olide
Class: Sesquiterpenelactone; Guaianolidei
Formula: C20H22O6
Exact mass: 358.1416
SMILES: CC4OC4(C)C(=O)O[C@@H]2CC(=C)[C@@H]3C(=O)C=C(C)[C@@H]3[C@H]1OC(=O)C(=C)[C@@H]12
InChI: InChI=1S/C20H22O6/c1-8-6-12(21)14-9(2)7-13(24-19(23)20(5)11(4)26-20)16-10(3)18(22)25-17(16)15(8)14/h6,11,13-17H,2-3,7H2,1,4-5H3/t11?,13-,14-,15+,16-,17-,20?/m1/s1
Instrument: Q Exactive Plus, ThermoFisher Scientific
Instrument type: LC-ESI-ITFT
Ms type: MS2
Ion mode: POSITIVE
Ionization: ESI
Collision energy: 50eV
Column name: Acquity CSHC18
Retention time: 6.625 min
Base peak: 359.1482
Precursor m/z: 359.1482
Precursor type: [M+H]+
Precursor intensity: 5300295000
m/z	relative intensity
68.7912	6
68.7956	4
69.031	2
69.0342	21
169.1017	2
187.1128	2
197.096	24
215.1077	13
225.0894	9
243.1009	999
244.1033	6
359.1452	47
