Mass spectrum: syringaldehyde; LC-ESI-QTOF; MS2; CE: 15.00;  [M+H]+
Name: syringaldehyde
Class: NA
Formula: C9H10O4
Exact mass: 182.0579
SMILES: COC1=CC(=CC(=C1O)OC)C=O
InChI: InChI=1S/C9H10O4/c1-12-7-3-6(5-10)4-8(13-2)9(7)11/h3-5,11H,1-2H3
Instrument: Bruker MicrOTOF-Q
Instrument type: LC-ESI-QTOF
Ms type: MS2
Ion mode: POSITIVE
Ionization: ESI
Collision energy: 15.00
Column name: Acquity CSHC18
Retention time: NA
Base peak: 183.0652
Precursor m/z: 183.0652
Precursor type: [M+H]+
m/z	relative intensity
95.0452	37
96.0483	66
123.042	67
124.0457	79
125.0207	105
140.0448	146
141.0483	420
155.0683	908
181.0468	999
