Mass spectrum: Malondialdehyde; LC-ESI-ITFT; MS2; CE: 40;  [M-H]-
Name: Malondialdehyde
Class: Organic oxygen compounds; Organooxygen compounds; Carbonyl compounds
Formula: C3H4O2
Exact mass: 72.02113
SMILES: O=CCC=O
InChI: InChI=1S/C3H4O2/c4-2-1-3-5/h2-3H,1H2
Instrument: Thermo Scientific Q-Exactive Focus
Instrument type: LC-ESI-ITFT
Ms type: MS2
Ion mode: NEGATIVE
Ionization: ESI
Collision energy: 40
Column name: Acquity CSHC18
Retention time: 1.479 min
Base peak: 71.01385
Precursor m/z: 71.01385
Precursor type: [M-H]-
m/z	relative intensity
53.0022	999
59.0048	116
63.9844	111
68.997	192
71.3002	91
76.6636	99
80.0041	93
84.3974	91
85.7222	90
88.4548	93
