Mass spectrum: Tryptamine; LC-ESI-QTOF; MS2; CE: 15.00;  [M-NH3+H]+
Name: Tryptamine
Class: NA
Formula: C10H12N2
Exact mass: 160.1000
SMILES: C1=CC=C2C(=C1)C(=CN2)CCN
InChI: InChI=1S/C10H12N2/c11-6-5-8-7-12-10-4-2-1-3-9(8)10/h1-4,7,12H,5-6,11H2
Instrument: Bruker MicrOTOF-Q
Instrument type: LC-ESI-QTOF
Ms type: MS2
Ion mode: POSITIVE
Ionization: ESI
Collision energy: 15.00
Column name: Acquity CSHC18
Retention time: NA
Base peak: 144.0808
Precursor m/z: 144.0808
Precursor type: [M-NH3+H]+
m/z	relative intensity
115.0529	25
116.056	33
117.0654	60
127.0533	107
128.0523	113
142.0647	132
143.0725	144
144.0803	418
145.0822	999
