Mass spectrum: Gibberellin A1; LC-ESI-QTOF; MS2; CE: -10, -35, -60V;  [M-H]-
Name: Gibberellin A1
Class: NA
Formula: C19H24O6
Exact mass: 348.1573
SMILES: CC12C(CCC3(C1C(C45C3CCC(C4)(C(=C)C5)O)C(=O)O)OC2=O)O
InChI: InChI=1S/C19H24O6/c1-9-7-17-8-18(9,24)5-3-10(17)19-6-4-11(20)16(2,15(23)25-19)13(19)12(17)14(21)22/h10-13,20,24H,1,3-8H2,2H3,(H,21,22)
Instrument: TripleToF 5600; Sciex
Instrument type: LC-ESI-QTOF
Ms type: MS2
Ion mode: NEGATIVE
Ionization: ESI
Collision energy: -10, -35, -60V
Column name: Acquity CSHC18
Retention time: 11.382 min
Base peak: 347.1547
Precursor m/z: 347.1547
Precursor type: [M-H]-
Precursor intensity: 147912.6
m/z	relative intensity
73.0281	28
83.0483	40
145.1023	122
157.0661	27
185.0962	25
199.1133	46
229.1222	173
241.1288	44
241.1617	102
259.1576	23
259.1712	228
273.115	211
285.1501	136
303.1619	169
329.1385	67
347.1502	999
