Mass spectrum: 2-Deoxy-D-ribose; LC-ESI-QTOF; MS2; CE: 15.00;  [M+Na]+
Name: 2-Deoxy-D-ribose
Class: NA
Formula: C5H10O4
Exact mass: 134.0579
SMILES: C(C=O)C(C(CO)O)O
InChI: InChI=1S/C5H10O4/c6-2-1-4(8)5(9)3-7/h2,4-5,7-9H,1,3H2
Instrument: Bruker MicrOTOF-Q
Instrument type: LC-ESI-QTOF
Ms type: MS2
Ion mode: POSITIVE
Ionization: ESI
Collision energy: 15.00
Column name: Acquity CSHC18
Retention time: NA
Base peak: 157.0471
Precursor m/z: 157.0471
Precursor type: [M+Na]+
m/z	relative intensity
102.98	632
111.02	775
116.97	999
