Mass spectrum: Bavachinin; LC-ESI-ITFT; MS2; CE: 45eV;  [M-H]-
Name: Bavachinin
Class: coumarin
Formula: C21H22O4
Exact mass: 338.1518
SMILES: CC(=CCC1=C(C=C2C(=C1)C(=O)CC(O2)C3=CC=C(C=C3)O)OC)C
InChI: InChI=1S/C21H22O4/c1-13(2)4-5-15-10-17-18(23)11-20(14-6-8-16(22)9-7-14)25-21(17)12-19(15)24-3/h4,6-10,12,20,22H,5,11H2,1-3H3
Instrument: LTQ Orbitrap XL, Thermo Scientfic; Dionex Ultimate 300
Instrument type: LC-ESI-ITFT
Ms type: MS2
Ion mode: NEGATIVE
Ionization: ESI
Collision energy: 45eV
Column name: Alltima C18
Retention time: 26.28 min
Base peak: 337.1408
Precursor m/z: 337.1408
Precursor type: [M-H]-
m/z	relative intensity
118.9299	999
216.2107	1
223.0369	7
289.1809	1
319.2336	3
