Mass spectrum: Alpha-Tomatine; LC-ESI-ITFT; MS2; CE: 35eV;  [M+H]+
Name: Alpha-Tomatine
Class: Glyco-Alkaloid
Formula: C50H83NO21
Exact mass: 1033.5458
SMILES: CC1CCC2(C(C3C(O2)CC4C3(CCC5C4CCC6C5(CCC(C6)OC7C(C(C(C(O7)CO)OC8C(C(C(C(O8)CO)O)OC9C(C(C(CO9)O)O)O)OC2C(C(C(C(O2)CO)O)O)O)O)O)C)C)C)NC1
InChI: InChI=1S/C50H83NO21/c1-20-7-12-50(51-15-20)21(2)32-28(72-50)14-26-24-6-5-22-13-23(8-10-48(22,3)25(24)9-11-49(26,32)4)65-45-40(63)37(60)41(31(18-54)68-45)69-47-43(71-46-39(62)36(59)34(57)29(16-52)66-46)42(35(58)30(17-53)67-47)70-44-38(61)33(56)27(55)19-64-44/h20-47,51-63H,5-19H2,1-4H3
Instrument: LTQ Orbitrap XL, Thermo Scientfic; Dionex Ultimate 300
Instrument type: LC-ESI-ITFT
Ms type: MS2
Ion mode: POSITIVE
Ionization: ESI
Collision energy: 35eV
Column name: Lichrospher C18 Column 250*4 5um, Interchim
Retention time: 63.4 min
Base peak: 1034.5490
Precursor m/z: 1034.5490
Precursor type: [M+H]+
m/z	relative intensity
287.0856	1
310.2025	1
315.4334	3
323.4128	2
324.7709	5
329.1522	1
337.3114	2
338.4176	1
351.2657	1
352.229	1
352.9445	1
357.2896	1
363.4992	5
364.3947	1
366.3935	3
369.1908	5
378.096	3
378.7891	3
380.3361	232
381.4034	26
387.3297	2
396.3878	14
398.2431	625
399.3774	58
414.2528	16
416.2682	692
417.3427	10
422.2876	1
426.3989	2
428.3891	2
432.3713	1
435.1729	16
437.2119	1
440.1535	11
448.2355	2
451.4452	1
458.3297	10
466.2494	1
470.6148	1
476.4637	2
482.2675	1
488.0706	1
494.4286	8
495.2129	2
500.4866	1
506.1683	1
512.7904	1
524.5334	2
525.5714	1
528.2772	1
530.3718	5
531.588	1
536.4606	1
542.3649	24
548.4804	4
557.9617	2
558.6097	2
559.2121	8
560.3451	617
561.4917	40
572.4608	1
574.1812	1
576.3739	6
577.2573	9
578.3563	481
579.5399	8
580.3325	2
588.2971	3
590.3157	3
600.191	1
614.3668	5
619.9778	1
626.1506	1
628.2913	4
630.5156	2
638.0452	1
656.5064	3
668.4326	1
674.3322	4
688.1569	5
689.1239	1
692.455	8
702.5847	1
704.503	14
706.2278	1
708.5691	2
710.3839	48
722.4629	83
723.3984	1
726.0819	1
739.3345	4
740.3918	95
741.38	2
764.3195	2
782.5249	6
794.4736	1
836.1212	4
852.5218	2
853.7849	92
854.4141	999
855.4943	99
866.609	1
870.8142	4
872.3562	222
873.5461	10
884.3606	961
885.3241	100
896.5994	2
900.5071	1
902.3884	542
903.3697	48
914.2506	1
926.5471	6
944.4625	6
974.5712	13
980.4416	2
997.8182	1
998.547	3
1014.4944	3
1015.6615	12
1016.3074	185
1017.0085	12
