Mass spectrum: SALSOLINOL; LC-ESI-QTOF; MS2; CE: 40;  [M+H]+
Name: SALSOLINOL
Class: NA
Formula: C10H13NO2
Exact mass: 179.09463
SMILES: [H][C@@]1(C)NCCC2=CC(O)=C(O)C=C12
InChI: InChI=1S/C10H13NO2/c1-6-8-5-10(13)9(12)4-7(8)2-3-11-6/h4-6,11-13H,2-3H2,1H3/t6-/m0/s1
Instrument: Agilent 6530Â Q-TOF LC/MS
Instrument type: LC-ESI-QTOF
Ms type: MS2
Ion mode: POSITIVE
Ionization: ESI
Collision energy: 40
Column name: NA
Retention time: 0.200 min
Base peak: 180.10497
Precursor m/z: 180.10497
Precursor type: [M+H]+
Precursor intensity: 166.5
m/z	relative intensity
41.0612	18
42.0458	18
43.0382	18
44.0631	18
50.0334	19
51.0519	19
51.1708	19
52.0436	19
53.0509	19
55.0502	20
56.0497	20
57.0322	20
62.0256	20
63.043	20
64.0366	21
65.2925	21
65.6797	21
65.7796	21
65.8807	21
66.0611	21
66.3082	21
67.0734	22
68.0533	22
69.0307	22
74.0248	22
75.0465	23
76.0527	23
77.3967	24
78.096	24
78.3159	26
78.4478	27
78.651	27
78.8621	33
79.2111	33
79.5283	34
80.0756	34
81.0734	34
84.0152	36
86.0126	37
87.0281	38
88.0335	43
89.0716	45
89.325	47
90.0588	47
90.7535	54
91.9214	60
93.0619	62
93.26	63
94.0728	63
95.0732	63
101.0716	64
102.3502	64
103.0924	65
103.8474	67
104.0869	67
104.3444	74
104.5054	75
105.1032	77
105.3625	80
106.0697	82
106.4241	83
107.0748	83
108.0681	85
109.0773	89
110.0491	93
113.0452	95
114.0559	97
114.4572	104
114.5461	105
114.7227	108
116.6148	113
118.5116	120
118.955	139
119.08	140
120.0734	172
122.0755	177
123.0813	178
124.0719	180
125.0474	192
126.0749	192
127.1039	199
127.2908	203
128.0647	207
129.0329	214
130.0668	221
131.0655	258
132.068	291
133.0875	393
134.0678	402
135.0751	428
136.0627	435
138.8511	452
141.0512	473
142.0638	473
143.0594	476
144.0792	492
145.0957	557
146.0742	574
147.0594	719
148.0619	772
150.0701	784
151.0793	788
161.066	999
163.087	18
164.0582	18
