Mass spectrum: Luteolin 4'-methyl ether; LC-ESI-QTOF; MS2; CE: 50eV;  [M-H]-
Name: Luteolin 4'-methyl ether
Class: Falvone
Formula: C16H12O6
Exact mass: 300.0634
SMILES: COC1=C(C=C(C=C1)C2=CC(=O)C3=C(C=C(C=C3O2)O)O)O
InChI: InChI=1S/C16H12O6/c1-21-13-3-2-8(4-10(13)18)14-7-12(20)16-11(19)5-9(17)6-15(16)22-14/h2-7,17-19H,1H3
Instrument: TIMS-TOF Pro, Bruker Daltonik; Elute UHPLC System, Bruker Daltonik
Instrument type: LC-ESI-QTOF
Ms type: MS2
Ion mode: NEGATIVE
Ionization: ESI
Collision energy: 50eV
Column name: Acquity CSHC18
Retention time: 7.522 min
Base peak: 299.0511
Precursor m/z: 299.0511
Precursor type: [M-H]-
Precursor intensity: 283731.1
m/z	relative intensity
23.2093	1
36.9636	1
41.0025	6
41.9969	2
49.7928	1
61.4266	2
63.0236	104
63.1902	1
64.0328	4
65.0016	73
66.0046	4
79.0178	2
83.0125	85
83.1606	2
83.7872	1
84.9908	3
87.1764	1
90.0154	1
92.0236	2
94.005	9
95.0136	1
104.0258	4
104.4362	2
105.9418	2
107.0124	103
107.3143	1
107.4565	1
108.0211	4
109.0296	2
110.1487	1
111.6132	1
116.0252	1
118.0397	2
120.0196	4
122.016	3
123.0056	6
124.0201	1
127.0551	3
132.0186	15
132.6553	1
133.0278	56
133.3098	1
134.0354	20
135.0376	2
135.8523	2
140.0561	1
141.0337	1
141.2548	2
144.0191	4
145.0313	1
146.9058	3
148.0163	6
149.0213	2
149.9949	2
151.0007	55
152.0118	1
152.5644	2
154.2302	2
155.0478	7
157.0272	3
157.3277	2
159.0411	4
161.0237	3
163.7987	1
165.6706	1
169.0259	1
171.0387	2
174.9979	1
183.0436	11
187.0372	2
188.7728	2
196.049	1
199.034	3
200.043	3
201.0321	1
208.7437	3
213.0162	1
216.0345	1
227.0332	8
231.0252	1
256.0309	4
257.0385	2
283.7881	1
283.9342	2
284.0299	999
284.309	3
284.4292	3
284.5908	1
284.7478	3
284.8236	2
284.9394	2
285.0326	123
285.1763	2
285.5492	1
285.8424	1
286.037	6
286.4719	1
298.833	1
299.0266	263
299.2993	1
299.3906	2
299.523	1
