Mass spectrum: Syringetin-3-o-glucoside; LC-ESI-QTOF; MS2; CE: 7-62eV;  [M-H]-
Name: Syringetin-3-o-glucoside
Class: Phenolics
Formula: C23H24O13
Exact mass: 508.1217
SMILES: COC1=CC(=CC(=C1O)OC)C2=C(C(=O)C3=C(C=C(C=C3O2)O)O)OC4C(C(C(C(O4)CO)O)O)O
InChI: InChI=1S/C23H24O13/c1-32-12-3-8(4-13(33-2)16(12)27)21-22(18(29)15-10(26)5-9(25)6-11(15)34-21)36-23-20(31)19(30)17(28)14(7-24)35-23/h3-6,14,17,19-20,23-28,30-31H,7H2,1-2H3
Instrument: Bruker MicrOTOF-Q
Instrument type: LC-ESI-QTOF
Ms type: MS2
Ion mode: NEGATIVE
Ionization: ESI
Collision energy: 7-62eV
Column name: Acquity CSHC18
Retention time: 32.476 min
Base peak: 507.1155
Precursor m/z: 507.1155
Precursor type: [M-H]-
Precursor intensity: 52506.38
m/z	relative intensity
151.0023	16
153.0159	18
174.0366	19
177.0197	19
178.9999	19
186.0346	21
202.027	21
213.0224	21
214.028	22
229.012	23
230.0209	23
231.0273	25
234.0546	27
241.0243	30
242.0297	33
243.0323	34
244.032	34
245.0436	40
257.0215	42
258.0342	47
259.0285	51
269.0145	53
270.0246	55
271.026	55
272.0346	60
273.0608	62
274.0468	75
275.0505	91
285.0111	93
286.0239	94
287.0492	102
288.0602	103
298.0107	115
299.0243	124
300.0342	129
301.0568	147
302.0426	162
303.041	175
314.0141	188
315.0434	200
316.0574	208
317.0674	301
329.0483	303
330.0442	383
331.0417	384
344.0868	421
345.0758	425
346.0662	498
387.0769	947
507.1655	999
