Mass spectrum: Orotic acid; LC-ESI-QTOF; MS2; CE: -10, -35, -60V;  [M-H]-
Name: Orotic acid
Class: NA
Formula: C5H4N2O4
Exact mass: 156.0171
SMILES: C1=C(NC(=O)NC1=O)C(=O)O
InChI: InChI=1S/C5H4N2O4/c8-3-1-2(4(9)10)6-5(11)7-3/h1H,(H,9,10)(H2,6,7,8,11)
Instrument: TripleToF 5600; Sciex
Instrument type: LC-ESI-QTOF
Ms type: MS2
Ion mode: NEGATIVE
Ionization: ESI
Collision energy: -10, -35, -60V
Column name: Acquity CSHC18
Retention time: 4.135 min
Base peak: 155.0124
Precursor m/z: 155.0124
Precursor type: [M-H]-
Precursor intensity: 514328.5
m/z	relative intensity
65.9996	30
67.03	30
68.016	37
86.063	29
110.6738	22
111.023	999
112.0264	204
141.0182	45
154.0835	22
155.0119	829
