Mass spectrum: N-oleoylglycine; ESI-TOF; MS2; CE: 6.0000000;  [M+H]+
Name: N-oleoylglycine
Class: NA
Formula: C20H37NO3
Exact mass: 339.27734
SMILES: CCCCCCCCC=CCCCCCCCC(=O)NCC(=O)O
InChI: InChI=1S/C20H37NO3/c1-2-3-4-5-6-7-8-9-10-11-12-13-14-15-16-17-19(22)21-18-20(23)24/h9-10H,2-8,11-18H2,1H3,(H,21,22)(H,23,24)
Instrument: waters xevo g2 TOF
Instrument type: ESI-TOF
Ms type: MS2
Ion mode: POSITIVE
Ionization: ESI
Collision energy: 6.0000000
Column name: Acquity CSHC18
Retention time: 7.970 min
Base peak: 340.28534
Precursor m/z: 340.28534
Precursor type: [M+H]+
m/z	relative intensity
95.0858	2
113.9865	6
121.1015	3
135.1168	5
149.1324	4
163.1489	1
189.6197	25
190.1214	2
247.242	29
248.2458	7
265.2523	152
266.2554	30
267.2591	2
294.2088	4
308.1534	5
322.2396	6
336.1818	2
340.2847	999
341.2879	237
