Mass spectrum: L-Acetylcarnitine; LC-ESI-ITFT; MS2; CE: 10;  [M+H]+
Name: L-Acetylcarnitine
Class: Lipids and lipid-like molecules; Fatty Acyls; Fatty acid esters
Formula: C9H17NO4
Exact mass: 203.11576
SMILES: CC(=O)O[C@H](CC([O-])=O)C[N+](C)(C)C
InChI: InChI=1S/C9H17NO4/c1-7(11)14-8(5-9(12)13)6-10(2,3)4/h8H,5-6H2,1-4H3/t8-/m1/s1
Instrument: Thermo Scientific Q-Exactive Focus
Instrument type: LC-ESI-ITFT
Ms type: MS2
Ion mode: POSITIVE
Ionization: ESI
Collision energy: 10
Column name: Acquity CSHC18
Retention time: 0.354 min
Base peak: 204.12303
Precursor m/z: 204.12303
Precursor type: [M+H]+
m/z	relative intensity
60.0813	165
82.7894	1
85.0288	681
90.1179	1
144.1018	26
145.0495	235
173.0524	1
189.1469	1
192.9074	1
204.1229	999
