Mass spectrum: Argininosuccinic acid; LC-ESI-QTOF; MS2; CE: 15 / 50;  [M-H]-
Name: Argininosuccinic acid
Class: NA
Formula: C10H18N4O6
Exact mass: 290.1226
SMILES: N[C@@H](CCCNC(=N)N[C@@H](CC(O)=O)C(O)=O)C(O)=O
InChI: InChI=1S/C10H18N4O6/c11-5(8(17)18)2-1-3-13-10(12)14-6(9(19)20)4-7(15)16/h5-6H,1-4,11H2,(H,15,16)(H,17,18)(H,19,20)(H3,12,13,14)/t5-,6-/m0/s1
Instrument: impact II
Instrument type: LC-ESI-QTOF
Ms type: MS2
Ion mode: NEGATIVE
Ionization: ESI
Collision energy: 15 / 50
Column name: Acquity CSHC18
Retention time: 0.824 min
Base peak: 289.1157
Precursor m/z: 289.1157
Precursor type: [M-H]-
m/z	relative intensity
88.0408	168
115.0038	236
131.0829	999
132.0305	872
156.0783	350
173.105	604
185.0932	127
210.0888	159
211.0724	262
227.1151	122
229.0834	191
271.1054	251
