Mass spectrum: URIDINE DIPHOSPHATEGALACTOSE; LC-ESI-QFT; MS2; CE: 30eV;  [M-H]-
Name: URIDINE DIPHOSPHATEGALACTOSE
Class: NA
Formula: C15H24N2O17P2
Exact mass: 566.05502
SMILES: OC[C@H]1O[C@H](O[P@@](O)(=O)O[P@@](O)(=O)OC[C@H]2O[C@H]([C@H](O)[C@@H]2O)N2C=CC(=O)NC2=O)[C@H](O)[C@@H](O)[C@H]1O
InChI: InChI=1S/C15H24N2O17P2/c18-3-5-8(20)10(22)12(24)14(32-5)33-36(28,29)34-35(26,27)30-4-6-9(21)11(23)13(31-6)17-2-1-7(19)16-15(17)25/h1-2,5-6,8-14,18,20-24H,3-4H2,(H,26,27)(H,28,29)(H,16,19,25)/t5-,6-,8+,9-,10+,11-,12-,13-,14-/m1/s1
Instrument: Q-Exactive Orbitrap, Thermo Scientfic; Ultimate 3000 HPLC, Thermo Scientfic
Instrument type: LC-ESI-QFT
Ms type: MS2
Ion mode: NEGATIVE
Ionization: ESI
Collision energy: 30eV
Column name: Acquity CSHC18
Retention time: 0.635 min
Base peak: 565.0477
Precursor m/z: 565.0477
Precursor type: [M-H]-
Precursor intensity: 137
m/z	relative intensity
52.1763	5
53.1654	4
54.186	4
54.3863	4
60.254	5
61.3398	5
76.2975	6
78.9575	543
83.2233	5
84.5093	5
87.9924	6
89.3697	5
90.096	6
90.6445	5
96.968	292
97.7241	6
111.0184	63
111.6258	6
138.9789	23
150.979	40
151.5242	6
158.9241	138
162.0526	8
176.935	14
192.9898	27
211.0005	122
224.9267	6
225.1014	6
241.0114	76
259.0231	11
272.9571	172
272.9703	8
280.0226	89
305.0183	50
320.9788	97
323.0286	999
324.0322	63
368.9458	7
384.9846	163
402.9952	76
457.0913	7
556.1497	8
565.0468	14
