Mass spectrum: Methyl benzoate; LC-ESI-ITFT; MS2; CE: 20;  [M+H]+
Name: Methyl benzoate
Class: Benzenoids; Benzene and substituted derivatives; Benzoic acids and derivatives
Formula: C8H8O2
Exact mass: 136.05243
SMILES: COC(=O)C1=CC=CC=C1
InChI: InChI=1S/C8H8O2/c1-10-8(9)7-5-3-2-4-6-7/h2-6H,1H3
Instrument: Thermo Scientific Q-Exactive Focus
Instrument type: LC-ESI-ITFT
Ms type: MS2
Ion mode: POSITIVE
Ionization: ESI
Collision energy: 20
Column name: Acquity CSHC18
Retention time: 0.631 min
Base peak: 137.05971
Precursor m/z: 137.05971
Precursor type: [M+H]+
m/z	relative intensity
67.0548	236
72.0284	999
72.53	449
81.0336	402
91.0546	511
95.0495	430
105.0338	332
122.0921	359
137.1074	362
137.1155	435
