Mass spectrum: Quercetagetin 4'-methyl ether; LC-ESI-QTOF; MS2; CE: 50eV;  [M+H]+
Name: Quercetagetin 4'-methyl ether
Class: Flavonol
Formula: C16H12O8
Exact mass: 332.0532
SMILES: COC1=C(C=C(C=C1)C2=C(C(=O)C3=C(O2)C=C(C(=C3O)O)O)O)O
InChI: InChI=1S/C16H12O8/c1-23-9-3-2-6(4-7(9)17)16-15(22)14(21)11-10(24-16)5-8(18)12(19)13(11)20/h2-5,17-20,22H,1H3
Instrument: TIMS-TOF Pro, Bruker Daltonik; Elute UHPLC System, Bruker Daltonik
Instrument type: LC-ESI-QTOF
Ms type: MS2
Ion mode: POSITIVE
Ionization: ESI
Collision energy: 50eV
Column name: Acquity CSHC18
Retention time: 6.547 min
Base peak: 333.0591
Precursor m/z: 333.0591
Precursor type: [M+H]+
Precursor intensity: 77844.44
m/z	relative intensity
58.3981	9
92.0268	7
121.0292	6
141.4321	7
146.0333	6
166.8406	5
168.0046	31
169.0097	59
170.0158	8
170.5064	3
188.0445	8
202.0261	5
206.2811	11
227.0294	6
233.0453	14
247.0231	7
285.0371	4
300.0041	8
301.0301	17
305.0543	8
318.0309	41
328.5516	3
332.6683	9
333.007	22
333.0591	999
