Mass spectrum: Rhamnose; ESI-TOF; MS2; CE: 0.6458333;  [M+H]+
Name: Rhamnose
Class: NA
Formula: C6H12O5
Exact mass: 164.06847
SMILES: CC1OC(O)C(O)C(O)C1O
InChI: InChI=1S/C6H12O5/c1-2-3(7)4(8)5(9)6(10)11-2/h2-10H,1H3
Instrument: waters xevo g2 TOF
Instrument type: ESI-TOF
Ms type: MS2
Ion mode: POSITIVE
Ionization: ESI
Collision energy: 0.6458333
Column name: Acquity CSHC18
Retention time: 0.579 min
Base peak: 165.07647
Precursor m/z: 165.07647
Precursor type: [M+H]+
m/z	relative intensity
126.9483	847
138.9912	35
140.9642	621
144.9593	656
171.0853	35
183.983	503
187.0584	999
197.9623	428
199.9784	35
200.9841	517
211.9784	414
217.9886	35
245.9833	35
258.1694	35
263.9947	35
265.0012	35
278.0091	35
279.0157	35
292.025	35
293.0273	35
351.1276	35
353.0995	35
382.0557	35
383.0609	35
