Mass spectrum: harmine; LC-ESI-ITFT; MS2; CE: 0.3;  [M+H]+
Name: harmine
Class: alkaloids
Formula: C13H12N2O
Exact mass: 212.0950
SMILES: CC1=NC=CC2=C1NC3=C2C=CC(=C3)OC
InChI: InChI=1S/C13H12N2O/c1-8-13-11(5-6-14-8)10-4-3-9(16-2)7-12(10)15-13/h3-7,15H,1-2H3
Instrument: LTQ-Orbitrap XL hybrid mass spectrometer (Thermo Scientific)
Instrument type: LC-ESI-ITFT
Ms type: MS2
Ion mode: POSITIVE
Ionization: ESI
Collision energy: 0.3
Column name: Acquity CSHC18
Retention time: 5.117 min
Base peak: 213.1021
Precursor m/z: 213.1021
Precursor type: [M+H]+
Precursor intensity: 54078020
m/z	relative intensity
55.2381	5
55.821	5
56.8172	4
58.6575	4
58.7662	5
58.8399	4
60.0337	5
61.2028	4
61.8204	5
62.8483	6
63.1026	7
64.1521	6
75.7536	4
81.0311	7
81.5176	5
125.7358	4
125.9813	8
130.6247	4
136.7775	5
166.9385	30
182.3575	4
186.1527	4
197.4438	9
198.0787	486
199.0821	12
203.2437	6
211.7559	5
213.1022	999
