Mass spectrum: Phellopterin; LC-ESI-ITFT; MS2; CE: 45eV;  [M+H]+
Name: Phellopterin
Class: coumarin
Formula: C17H16O5
Exact mass: 300.0998
SMILES: CC(=CCOC1=C2C(=C(C3=C1OC(=O)C=C3)OC)C=CO2)C
InChI: InChI=1S/C17H16O5/c1-10(2)6-8-21-17-15-12(7-9-20-15)14(19-3)11-4-5-13(18)22-16(11)17/h4-7,9H,8H2,1-3H3
Instrument: LTQ Orbitrap XL, Thermo Scientfic; Dionex Ultimate 300
Instrument type: LC-ESI-ITFT
Ms type: MS2
Ion mode: POSITIVE
Ionization: ESI
Collision energy: 45eV
Column name: Alltima C18
Retention time: 23.35 min
Base peak: 301.1066
Precursor m/z: 301.1066
Precursor type: [M+H]+
m/z	relative intensity
199.1091	13
213.0646	16
229.2259	17
245.0457	999
273.1421	102
