Mass spectrum: Eriodictyol; LC-ESI-QTOF; MS2; CE: 50eV;  [M-H]-
Name: Eriodictyol
Class: Flavanone
Formula: C15H12O6
Exact mass: 288.0634
SMILES: C1C(OC2=CC(=CC(=C2C1=O)O)O)C3=CC(=C(C=C3)O)O
InChI: InChI=1S/C15H12O6/c16-8-4-11(19)15-12(20)6-13(21-14(15)5-8)7-1-2-9(17)10(18)3-7/h1-5,13,16-19H,6H2
Instrument: TIMS-TOF Pro, Bruker Daltonik; Elute UHPLC System, Bruker Daltonik
Instrument type: LC-ESI-QTOF
Ms type: MS2
Ion mode: NEGATIVE
Ionization: ESI
Collision energy: 50eV
Column name: Acquity CSHC18
Retention time: 6.635 min
Base peak: 287.0514
Precursor m/z: 287.0514
Precursor type: [M-H]-
Precursor intensity: 55874.67
m/z	relative intensity
22.6408	6
41.0015	6
49.6883	10
57.0334	9
64.8276	8
65.0029	149
66.0046	7
69.6362	8
73.9048	9
75.7227	10
77.0373	12
81.0334	10
83.0126	80
83.2267	8
84.8267	8
89.4852	5
91.0536	13
101.925	5
107.0303	53
108.0523	11
109.028	36
110.0297	6
117.0329	34
118.0363	7
127.0534	6
132.0024	9
134.0354	313
134.9973	8
135.2026	8
135.3786	9
135.5668	7
136.0454	135
136.7931	4
137.0237	8
149.0213	9
151.0008	999
151.2663	5
151.3963	5
152.0041	46
165.0158	7
175.0418	5
286.6001	5
287.0514	54
