Mass spectrum: (+)-Fenchol; APCI-ITFT; MS2; CE: HCD 90;  [M-H]-
Name: (+)-Fenchol
Class: NA
Formula: C10H18O
Exact mass: 154.13577
SMILES: CC1(C2CCC(C2)(C1O)C)C
InChI: InChI=1S/C10H18O/c1-9(2)7-4-5-10(3,6-7)8(9)11/h7-8,11H,4-6H2,1-3H3
Instrument: Orbitrap Elite
Instrument type: APCI-ITFT
Ms type: MS2
Ion mode: NEGATIVE
Ionization: APCI
Collision energy: HCD 90
Column name: Acquity CSHC18
Retention time: 0.128 min
Base peak: 153.12900
Precursor m/z: 153.12900
Precursor type: [M-H]-
Precursor intensity: 71766.47
m/z	relative intensity
81.0462	59
82.0307	86
82.0415	79
83.0255	68
89.0148	172
93.0468	54
95.0258	82
98.0256	43
100.0071	70
109.0408	92
110.0254	73
110.0363	107
110.0728	68
111.02	119
111.0572	159
112.0046	44
112.0523	85
114.0105	342
123.0204	58
123.0563	104
124.0518	78
125.0365	134
126.0108	237
126.0314	60
127.0175	999
135.0576	68
136.0513	39
137.0368	38
140.0259	54
152.0123	49
152.0251	71
152.0364	43
152.0469	202
152.0845	63
152.9171	170
153.021	105
153.0322	884
153.068	213
153.0794	71
153.0923	102
153.1294	273
