Mass spectrum: pinocembrin; LC-ESI-ITFT; MS2; CE: 0.3;  [M-H]-
Name: pinocembrin
Class: flavanones
Formula: C15H12O4
Exact mass: 256.0736
SMILES: C1C(OC2=CC(=CC(=C2C1=O)O)O)C3=CC=CC=C3
InChI: InChI=1S/C15H12O4/c16-10-6-11(17)15-12(18)8-13(19-14(15)7-10)9-4-2-1-3-5-9/h1-7,13,16-17H,8H2
Instrument: LTQ-Orbitrap XL hybrid mass spectrometer (Thermo Scientific)
Instrument type: LC-ESI-ITFT
Ms type: MS2
Ion mode: NEGATIVE
Ionization: ESI
Collision energy: 0.3
Column name: Acquity CSHC18
Retention time: 10.985 min
Base peak: 255.0661
Precursor m/z: 255.0661
Precursor type: [M-H]-
Precursor intensity: 15645650
m/z	relative intensity
61.4882	4
66.1987	4
68.9665	5
73.3008	4
74.0958	4
78.35	4
78.4452	4
79.2378	4
83.0147	8
89.2043	5
89.3826	4
93.9887	4
95.2872	5
96.7487	4
107.0142	35
115.4763	4
118.8033	4
120.042	4
125.0246	18
127.1692	6
127.8932	4
128.218	5
133.0299	16
133.61	4
136.4247	4
136.4465	6
136.7377	5
137.7709	6
141.0714	9
142.1572	5
143.7122	5
145.0662	91
145.1928	4
145.5952	4
148.4123	5
150.7633	5
151.004	224
152.0687	4
152.1547	5
153.2104	4
153.2177	5
155.1022	6
164.0115	38
166.2253	6
166.3685	5
166.9781	8
167.0871	10
169.066	72
170.8871	5
171.0455	30
177.0182	15
178.9148	6
179.6077	5
181.6828	5
183.0817	39
183.7388	6
185.0616	11
186.054	6
187.0765	109
188.36	5
189.7763	5
192.3431	5
193.0652	17
194.1737	5
194.5517	5
197.3371	5
198.7051	5
199.0029	6
200.1508	6
202.3607	5
202.6124	6
205.2011	5
205.6265	6
209.6702	7
209.6784	6
210.5042	7
211.0765	277
213.0556	632
219.4112	6
221.8708	7
226.3509	6
227.0715	36
227.5827	5
231.8549	7
234.418	5
236.8382	5
236.9384	7
239.1678	5
239.5663	6
239.8497	6
240.0421	6
241.1251	8
244.7311	5
250.3161	5
250.4307	6
254.2687	7
255.066	999
