Mass spectrum: DEOXYGUANOSINE; LC-ESI-QFT; MS2; CE: 30eV;  [M+H]+
Name: DEOXYGUANOSINE
Class: NA
Formula: C10H13N5O4
Exact mass: 267.09675
SMILES: NC1=NC2=C(N=CN2[C@H]2C[C@H](O)[C@@H](CO)O2)C(=O)N1
InChI: InChI=1S/C10H13N5O4/c11-10-13-8-7(9(18)14-10)12-3-15(8)6-1-4(17)5(2-16)19-6/h3-6,16-17H,1-2H2,(H3,11,13,14,18)/t4-,5+,6+/m0/s1
Instrument: Q-Exactive Orbitrap, Thermo Scientfic; Ultimate 3000 HPLC, Thermo Scientfic
Instrument type: LC-ESI-QFT
Ms type: MS2
Ion mode: POSITIVE
Ionization: ESI
Collision energy: 30eV
Column name: Acquity CSHC18
Retention time: 1.367 min
Base peak: 268.1040
Precursor m/z: 268.1040
Precursor type: [M+H]+
Precursor intensity: 161
m/z	relative intensity
51.4168	5
53.0395	6
55.0296	6
56.1903	7
57.0343	11
57.5578	7
58.2515	6
60.0789	6
60.3651	7
62.238	6
64.2173	6
66.6728	6
66.8546	6
68.7516	6
69.0344	13
71.05	85
73.0293	125
81.0342	17
86.6211	7
98.9848	19
99.0448	246
99.5886	7
110.0353	38
110.8934	7
117.0552	999
118.0587	31
128.0461	13
134.0466	7
135.0306	49
146.9678	8
153.0412	134
153.0468	10
153.0479	10
153.0542	158
153.0605	480
162.3843	8
220.6452	7
224.9947	15
244.8869	10
268.1051	8
