Mass spectrum: ADP-GLUCOSE; LC-ESI-QFT; MS2; CE: 30eV;  [M+H]+
Name: ADP-GLUCOSE
Class: NA
Formula: C16H25N5O15P2
Exact mass: 589.08224
SMILES: NC1=C2N=CN([C@@H]3O[C@H](CO[P@](O)(=O)O[P@](O)(=O)O[C@H]4O[C@H](CO)[C@@H](O)[C@H](O)[C@H]4O)[C@@H](O)[C@H]3O)C2=NC=N1
InChI: InChI=1S/C16H25N5O15P2/c17-13-7-14(19-3-18-13)21(4-20-7)15-11(26)9(24)6(33-15)2-32-37(28,29)36-38(30,31)35-16-12(27)10(25)8(23)5(1-22)34-16/h3-6,8-12,15-16,22-27H,1-2H2,(H,28,29)(H,30,31)(H2,17,18,19)/t5-,6-,8-,9-,10+,11-,12-,15-,16-/m1/s1
Instrument: Q-Exactive Orbitrap, Thermo Scientfic; Ultimate 3000 HPLC, Thermo Scientfic
Instrument type: LC-ESI-QFT
Ms type: MS2
Ion mode: POSITIVE
Ionization: ESI
Collision energy: 30eV
Column name: Acquity CSHC18
Retention time: 0.580 min
Base peak: 590.0895
Precursor m/z: 590.0895
Precursor type: [M+H]+
Precursor intensity: 140
m/z	relative intensity
51.6776	11
52.4772	11
52.4797	11
54.3584	12
66.1937	15
66.4739	14
80.5357	12
83.3575	13
86.3646	18
94.1309	13
96.1617	13
97.0291	17
101.3547	13
120.4046	16
121.0595	14
136.0622	999
137.0654	27
152.5459	14
159.4732	15
238.3241	16
257.9871	15
348.0714	217
348.5043	15
408.7074	18
428.038	88
507.8657	16
