Mass spectrum: Imipramine; ESI-TOF; MS2; CE: 6.0000000;  [M+H]+
Name: Imipramine
Class: NA
Formula: C19H24N2
Exact mass: 280.19395
SMILES: CN(C)CCCN1C2=CC=CC=C2CCC2=CC=CC=C12
InChI: InChI=1S/C19H24N2/c1-20(2)14-7-15-21-18-10-5-3-8-16(18)12-13-17-9-4-6-11-19(17)21/h3-6,8-11H,7,12-15H2,1-2H3
Instrument: waters xevo g2 TOF
Instrument type: ESI-TOF
Ms type: MS2
Ion mode: POSITIVE
Ionization: ESI
Collision energy: 6.0000000
Column name: Acquity CSHC18
Retention time: 2.620 min
Base peak: 281.20195
Precursor m/z: 281.20195
Precursor type: [M+H]+
m/z	relative intensity
86.0978	102
87.1004	6
137.9885	7
163.0399	1
167.105	4
193.0889	1
194.0968	5
195.1021	34
196.1108	2
208.1127	201
209.116	35
210.1214	3
224.1075	3
225.1145	1
229.1403	1
235.1349	3
236.144	416
237.1471	80
238.1508	6
242.1092	10
243.1232	1
267.1862	16
268.1901	3
278.189	5
281.7466	999
