Mass spectrum: Di-caffeoyl-spermidine; LC-ESI-QTOF; MS2; CE: 35eV;  [M+H]+
Name: Di-caffeoyl-spermidine
Class: Phenolic-polyamine conjugate
Formula: C25H31N3O6
Exact mass: 469.2213
SMILES: Oc1ccc(/C=C/C(=O)NCCCNCCCCNC(=O)/C=C/c2ccc(O)c(O)c2)cc1O
InChI: InChI=1S/C25H31N3O6/c29-20-8-4-18(16-22(20)31)6-10-24(33)27-14-2-1-12-26-13-3-15-28-25(34)11-7-19-5-9-21(30)23(32)17-19/h4-11,16-17,26,29-32H,1-3,12-15H2,(H,27,33)(H,28,34)/b10-6+,11-7+
Instrument: Impact II qTOF
Instrument type: LC-ESI-QTOF
Ms type: MS2
Ion mode: POSITIVE
Ionization: ESI
Collision energy: 35eV
Column name: Acquity CSH C18 column (particle size 1.7 μm, column length 2.1 × 50 mm) (Waters)
Retention time: 7.2 min
Base peak: 470.2283
Precursor m/z: 470.2283
Precursor type: [M+H]+
m/z	relative intensity
129.1385	62
146.1648	76
163.0389	870
220.0968	999
221.1004	99
234.1121	115
291.1703	195
308.1972	624
309.1998	121
470.2283	102
