Mass spectrum: salicortin-6'-benzoate; LC-ESI-ITFT; MS2; CE: 20/50eV;  [M-H]-
Name: salicortin-6'-benzoate
Class: Salicinoid
Formula: C27H28O11
Exact mass: 528.1632
SMILES: O=C1CCC=CC1(O)C(OCC2=CC=CC=C2OC3C(O)C(O)C(O)C(COC(C4=CC=CC=C4)=O)O3)=O
InChI: InChI=1S/C27H28O11/c28-20-12-6-7-13-27(20,34)26(33)36-14-17-10-4-5-11-18(17)37-25-23(31)22(30)21(29)19(38-25)15-35-24(32)16-8-2-1-3-9-16/h1-5,7-11,13,19,21-23,25,29-31,34H,6,12,14-15H2
Instrument: Bruker timsTOF
Instrument type: LC-ESI-ITFT
Ms type: MS2
Ion mode: NEGATIVE
Ionization: ESI
Collision energy: 20/50eV
Column name: Acquity CSHC18
Retention time: 8.606 min
Base peak: 527.1555
Precursor m/z: 527.1555
Precursor type: [M-H]-
Precursor intensity: 22055.25
m/z	relative intensity
123.0442	636
527.1573	999
