Mass spectrum: Quercetin; LC-ESI-QTOF; MS2; CE: 7-62eV;  [M-H]-
Name: Quercetin
Class: Phenolics
Formula: C15H10O7
Exact mass: 302.0427
SMILES: C1=CC(=C(C=C1C2=C(C(=O)C3=C(C=C(C=C3O2)O)O)O)O)O
InChI: InChI=1S/C15H10O7/c16-7-4-10(19)12-11(5-7)22-15(14(21)13(12)20)6-1-2-8(17)9(18)3-6/h1-5,16-19,21H
Instrument: Bruker MicrOTOF-Q
Instrument type: LC-ESI-QTOF
Ms type: MS2
Ion mode: NEGATIVE
Ionization: ESI
Collision energy: 7-62eV
Column name: Acquity CSHC18
Retention time: 33.682 min
Base peak: 301.0382
Precursor m/z: 301.0382
Precursor type: [M-H]-
Precursor intensity: 63533.75
m/z	relative intensity
107.015	13
109.0356	14
121.0351	14
122.035	14
125.024	14
133.0273	15
139.045	15
143.0523	16
145.0238	17
146.0377	18
148.0103	18
149.0267	19
151.0116	19
152.007	20
153.0135	20
159.0463	20
161.0201	21
163.0223	21
164.0118	23
169.0164	24
170.0197	25
179.0051	26
179.9994	27
182.0388	28
183.05	29
187.0447	29
193.0205	29
205.0497	46
211.0417	58
229.0502	61
231.0271	84
245.053	99
255.0264	127
257.046	194
273.0437	521
274.0455	999
301.0657	13
