Mass spectrum: 5-trans Fluprostenol isopropyl ester; ESI-TOF; MS2; CE: 0.6458333;  [M+H]+
Name: 5-trans Fluprostenol isopropyl ester
Class: NA
Formula: C26H35F3O6
Exact mass: 500.23857
SMILES: CC(C)OC(=O)CCCC=CCC1C(CC(C1C=CC(COC2=CC=CC(=C2)C(F)(F)F)O)O)O
InChI: InChI=1S/C26H35F3O6/c1-17(2)35-25(33)11-6-4-3-5-10-21-22(24(32)15-23(21)31)13-12-19(30)16-34-20-9-7-8-18(14-20)26(27,28)29/h3,5,7-9,12-14,17,19,21-24,30-32H,4,6,10-11,15-16H2,1-2H3
Instrument: waters xevo g2 TOF
Instrument type: ESI-TOF
Ms type: MS2
Ion mode: POSITIVE
Ionization: ESI
Collision energy: 0.6458333
Column name: Acquity CSHC18
Retention time: 4.522 min
Base peak: 501.24657
Precursor m/z: 501.24657
Precursor type: [M+H]+
m/z	relative intensity
79.0548	114
81.0703	136
83.0504	35
91.055	515
92.0574	30
93.0705	207
105.0715	633
106.0745	42
107.0514	42
115.0562	118
117.0707	531
118.0745	41
119.0866	489
120.0889	30
121.0301	56
123.0826	20
128.064	192
129.0709	706
131.0861	424
133.0836	74
135.0813	71
141.0344	238
143.0872	300
144.0949	25
145.1022	398
146.1054	30
147.1181	484
148.1185	35
149.0209	4
153.0705	68
154.0769	84
155.0862	651
156.0913	152
157.1014	312
159.0819	187
161.0975	117
165.0722	160
166.0774	190
167.0849	113
168.0932	125
169.101	535
171.1174	321
172.1222	31
173.1341	61
177.1659	4
179.0969	142
181.1023	573
182.1067	98
183.0647	518
187.1131	4
189.1284	426
190.1311	4
192.0914	97
197.133	430
198.1335	4
199.112	320
201.1266	157
207.1378	4
208.1219	93
210.0629	4
215.1428	172
216.145	21
217.1239	127
218.1249	4
219.1021	21
219.5684	4
225.1285	956
226.1304	153
233.1532	37
235.1327	29
240.0877	4
243.1375	21
244.1416	144
247.0933	4
249.1848	249
250.1407	4
259.1683	13
261.1037	257
262.1517	4
263.0725	32
275.2009	4
277.1797	37
279.1605	4
285.1851	229
286.1885	33
303.1954	303
304.2009	42
305.1997	4
315.0665	30
317.103	44
320.1042	195
321.1682	176
322.2097	4
363.1609	42
375.1116	23
419.1161	131
437.1243	131
447.2246	4
461.122	49
465.177	42
466.2281	4
478.1525	21
479.1355	139
480.1371	38
481.177	469
482.1395	428
483.2352	4
484.2389	4
485.2428	4
497.1449	999
498.1467	225
501.2442	4
502.2454	4
