Mass spectrum: N-Alpha-acetyllysine; LC-ESI-ITFT; MS2; CE: 20;  [M-H]-
Name: N-Alpha-acetyllysine
Class: Organic acids and derivatives; Carboxylic acids and derivatives; Amino acids, peptides, and analogues
Formula: C8H16N2O3
Exact mass: 188.11609
SMILES: CC(=O)NC(CCCCN)C(O)=O
InChI: InChI=1S/C8H16N2O3/c1-6(11)10-7(8(12)13)4-2-3-5-9/h7H,2-5,9H2,1H3,(H,10,11)(H,12,13)
Instrument: Thermo Scientific Q-Exactive Focus
Instrument type: LC-ESI-ITFT
Ms type: MS2
Ion mode: NEGATIVE
Ionization: ESI
Collision energy: 20
Column name: Acquity CSHC18
Retention time: 0.644 min
Base peak: 187.10883
Precursor m/z: 187.10883
Precursor type: [M-H]-
m/z	relative intensity
58.0287	110
97.0759	38
99.0916	10
125.096	2
126.0913	18
143.1179	47
145.0972	999
151.1339	2
183.1778	2
187.1079	3
