Mass spectrum: GLUTAMINE; LC-ESI-QTOF; MS2; CE: 10;  [M-H]-
Name: GLUTAMINE
Class: NA
Formula: C5H10N2O3
Exact mass: 146.06914
SMILES: N[C@@H](CCC(N)=O)C(O)=O
InChI: InChI=1S/C5H10N2O3/c6-3(5(9)10)1-2-4(7)8/h3H,1-2,6H2,(H2,7,8)(H,9,10)/t3-/m0/s1
Instrument: Agilent 6530Â Q-TOF LC/MS
Instrument type: LC-ESI-QTOF
Ms type: MS2
Ion mode: NEGATIVE
Ionization: ESI
Collision energy: 10
Column name: NA
Retention time: 0.200 min
Base peak: 145.06409
Precursor m/z: 145.06409
Precursor type: [M-H]-
Precursor intensity: 174
m/z	relative intensity
42.0112	135
58.033	183
74.0316	196
82.0329	266
84.0527	304
101.0777	314
109.0528	375
127.0694	800
128.0474	907
145.0814	999
