Mass spectrum: Tectorigenin; LC-ESI-QTOF; MS2; CE: 50eV;  [M-H]-
Name: Tectorigenin
Class: Isoflavone
Formula: C16H12O6
Exact mass: 300.0634
SMILES: COC1=C(C2=C(C=C1O)OC=C(C2=O)C3=CC=C(C=C3)O)O
InChI: InChI=1S/C16H12O6/c1-21-16-11(18)6-12-13(15(16)20)14(19)10(7-22-12)8-2-4-9(17)5-3-8/h2-7,17-18,20H,1H3
Instrument: TIMS-TOF Pro, Bruker Daltonik; Elute UHPLC System, Bruker Daltonik
Instrument type: LC-ESI-QTOF
Ms type: MS2
Ion mode: NEGATIVE
Ionization: ESI
Collision energy: 50eV
Column name: Acquity CSHC18
Retention time: 7.428 min
Base peak: 299.0512
Precursor m/z: 299.0512
Precursor type: [M-H]-
Precursor intensity: 240900.3
m/z	relative intensity
18.3671	2
41.5851	2
49.2292	2
63.0224	3
65.0016	16
66.0098	1
69.0021	2
74.2672	1
89.0397	3
91.0145	4
92.9972	5
94.0035	5
103.7767	2
106.0051	5
107.0108	3
109.9982	22
111.001	1
117.0329	4
119.0113	1
123.0074	5
126.8775	2
130.0406	8
132.0205	41
133.0279	77
133.574	2
134.0318	4
135.0175	2
136.0141	1
136.9849	7
138.4541	1
139.8845	3
142.4002	4
143.0482	5
143.5843	2
145.0238	1
145.4741	3
149.7613	2
151.4234	3
153.3777	1
154.4496	5
155.0479	21
156.0547	4
157.0253	3
159.0451	3
160.0489	3
160.9858	3
163.0006	4
165.0523	2
165.9874	3
172.0962	2
174.0294	2
182.0339	2
183.0415	6
184.0455	4
187.0437	6
190.9955	5
191.4403	5
195.0392	1
199.0363	7
200.0453	10
211.0349	5
212.0485	5
226.9501	1
227.0356	9
228.0369	3
240.0411	11
241.0437	2
255.0228	4
256.031	3
282.5995	1
283.0211	8
283.8042	3
283.9543	3
284.0273	999
284.1868	2
284.2825	3
284.4553	3
284.6291	2
284.7639	2
284.9235	2
285.03	139
285.2297	4
285.4081	2
285.6213	1
286.0344	12
287.2597	1
299.0512	312
299.4139	1
299.504	1
