Mass spectrum: Azaleatin 3-O-glucoside; LC-ESI-QTOF; MS2; CE: 50eV;  [M-H]-
Name: Azaleatin 3-O-glucoside
Class: Flavonol
Formula: C22H22O12
Exact mass: 478.1111
SMILES: COC1=CC(=CC2=C1C(=O)C(=C(O2)C3=CC(=C(C=C3)O)O)OC4C(C(C(C(O4)CO)O)O)O)O
InChI: InChI=1S/C22H22O12/c1-31-12-5-9(24)6-13-15(12)17(28)21(20(32-13)8-2-3-10(25)11(26)4-8)34-22-19(30)18(29)16(27)14(7-23)33-22/h2-6,14,16,18-19,22-27,29-30H,7H2,1H3
Instrument: TIMS-TOF Pro, Bruker Daltonik; Elute UHPLC System, Bruker Daltonik
Instrument type: LC-ESI-QTOF
Ms type: MS2
Ion mode: NEGATIVE
Ionization: ESI
Collision energy: 50eV
Column name: Acquity CSHC18
Retention time: 4.835 min
Base peak: 477.0963
Precursor m/z: 477.0963
Precursor type: [M-H]-
Precursor intensity: 148719.5
m/z	relative intensity
60.322	3
61.2723	3
72.0756	6
78.6077	5
86.9719	6
89.3629	7
100.3821	6
102.1831	4
107.0108	4
108.0195	20
109.0297	6
117.3299	4
121.0271	27
135.0047	4
136.016	16
139.0373	6
143.0482	6
147.0186	5
148.0125	44
148.6097	4
151.0008	75
152.0041	18
153.9328	7
158.0346	8
160.7578	7
162.0238	5
163.0006	13
165.0179	87
166.022	7
167.8698	7
169.4136	3
172.0507	4
177.0145	5
178.5007	8
183.0415	8
191.0326	5
193.0077	9
194.0145	5
198.5695	5
199.0341	12
203.0223	8
204.9816	6
212.1519	8
216.037	3
219.4057	6
223.2763	6
223.7595	7
226.1338	5
226.8765	12
227.5705	5
228.0417	11
229.2648	8
230.1514	7
230.8384	6
232.7781	6
234.1899	5
234.6824	4
236.0491	7
237.6312	10
240.2806	5
240.9336	8
241.7763	8
243.0258	25
244.0346	8
245.0431	4
246.3208	9
251.3549	4
252.3157	5
255.0279	21
256.7126	5
257.0386	13
258.0457	7
259.0573	18
260.9463	7
266.1166	9
269.0389	4
270.0614	7
271.0209	66
272.0238	47
272.6353	5
273.0259	17
275.9962	4
283.0556	5
286.0958	5
287.0514	15
288.054	8
290.5159	8
299.0158	10
300.0227	4
302.738	3
304.4248	9
311.0742	11
312.0205	6
313.0686	3
314.0374	649
314.2079	7
314.8594	4
315.0441	672
315.2988	8
315.4024	4
315.492	6
315.5648	5
315.6825	3
315.7638	4
316.0496	117
316.201	4
316.7171	6
317.0539	14
341.0728	4
357.0589	7
425.0124	5
471.5778	6
476.0774	19
476.5351	4
476.6556	4
476.721	6
476.8311	13
476.97	9
477.0929	999
477.3012	8
477.4764	10
