Mass spectrum: Biotin; LC-ESI-QTOF; MS2; CE: 15 / 50;  [M+H]+
Name: Biotin
Class: NA
Formula: C10H16N2O3S
Exact mass: 244.08816
SMILES: C1C2C(C(S1)CCCCC(=O)O)NC(=O)N2
InChI: InChI=1S/C10H16N2O3S/c13-8(14)4-2-1-3-7-9-6(5-16-7)11-10(15)12-9/h6-7,9H,1-5H2,(H,13,14)(H2,11,12,15)
Instrument: impact II
Instrument type: LC-ESI-QTOF
Ms type: MS2
Ion mode: POSITIVE
Ionization: ESI
Collision energy: 15 / 50
Column name: Acquity CSHC18
Retention time: 0.558 min
Base peak: 245.09490
Precursor m/z: 245.09490
Precursor type: [M+H]+
m/z	relative intensity
227.4254	999
