Mass spectrum: N-arachidonoylglycine; ESI-TOF; MS2; CE: 0.6458333;  [M+H]+
Name: N-arachidonoylglycine
Class: NA
Formula: C22H35NO3
Exact mass: 361.26169
SMILES: [H]OC(=O)C([H])([H])N([H])C(=O)C([H])([H])C([H])([H])C([H])([H])C([H])=C([H])C([H])([H])C([H])=C([H])C([H])([H])C([H])=C([H])C([H])([H])C([H])=C([H])C([H])([H])C([H])([H])C([H])([H])C([H])([H])C([H])([H])[H]
InChI: InChI=1S/C22H35NO3/c1-2-3-4-5-6-7-8-9-10-11-12-13-14-15-16-17-18-19-21(24)23-20-22(25)26/h6-7,9-10,12-13,15-16H,2-5,8,11,14,17-20H2,1H3,(H,23,24)(H,25,26)
Instrument: waters xevo g2 TOF
Instrument type: ESI-TOF
Ms type: MS2
Ion mode: POSITIVE
Ionization: ESI
Collision energy: 0.6458333
Column name: Acquity CSHC18
Retention time: 7.483 min
Base peak: 362.26969
Precursor m/z: 362.26969
Precursor type: [M+H]+
m/z	relative intensity
67.0556	174
76.0408	369
79.0556	396
81.0711	486
91.0555	883
93.071	652
95.0865	512
105.0712	917
107.0858	410
109.1021	211
112.0073	94
117.0711	395
119.0867	999
120.0887	94
121.1021	557
129.071	400
131.0864	681
133.1015	961
135.0646	192
143.086	498
145.1014	495
147.1172	471
149.0621	201
157.1014	493
159.1171	257
161.1336	337
163.1485	93
171.1167	592
172.1105	57
173.1336	197
175.0962	318
177.1648	89
185.1329	524
187.1482	158
189.1644	336
191.1801	85
199.1484	276
203.1803	604
204.1838	80
205.176	66
213.164	111
227.1793	100
243.2102	100
245.2269	264
259.2425	196
260.2459	25
269.227	821
270.2302	167
287.2374	949
288.2413	195
325.1847	827
326.1758	174
340.2519	103
344.2566	55
356.2268	586
362.2696	338
