Mass spectrum: Succinyl-CoA; LC-ESI-QTOF; MS2; CE: 60;  [M-H]-
Name: Succinyl-CoA
Class: Acyl CoAs
Formula: C25H40N7O19P3S
Exact mass: 867.13125
SMILES: CC(C)(COP(O)(=O)OP(O)(=O)OC[C@H]1O[C@H]([C@H](O)[C@@H]1OP(O)(O)=O)N1C=NC2=C1N=CN=C2N)[C@@H](O)C(=O)NCCC(=O)NCCSC(=O)CCC(O)=O
InChI: InChI=1S/C25H40N7O19P3S/c1-25(2,20(38)23(39)28-6-5-14(33)27-7-8-55-16(36)4-3-15(34)35)10-48-54(45,46)51-53(43,44)47-9-13-19(50-52(40,41)42)18(37)24(49-13)32-12-31-17-21(26)29-11-30-22(17)32/h11-13,18-20,24,37-38H,3-10H2,1-2H3,(H,27,33)(H,28,39)(H,34,35)(H,43,44)(H,45,46)(H2,26,29,30)(H2,40,41,42)/t13-,18-,19-,20+,24-/m1/s1
Instrument: impact II
Instrument type: LC-ESI-QTOF
Ms type: MS2
Ion mode: NEGATIVE
Ionization: ESI
Collision energy: 60
Column name: Acquity CSHC18
Retention time: 1.863 min
Base peak: 866.12510
Precursor m/z: 866.12510
Precursor type: [M-H]-
m/z	relative intensity
78.9593	272
127.0033	116
134.0472	469
139.007	136
158.9252	999
272.9573	354
328.0453	113
339.0778	540
357.0903	135
408.0112	515
409.0153	115
426.0244	186
