Mass spectrum: ALLANTOIN; LC-ESI-QTOF; MS2; CE: 40;  [M-H]-
Name: ALLANTOIN
Class: NA
Formula: C4H6N4O3
Exact mass: 158.04399
SMILES: NC(=O)NC1NC(=O)NC1=O
InChI: InChI=1S/C4H6N4O3/c5-3(10)6-1-2(9)8-4(11)7-1/h1H,(H3,5,6,10)(H2,7,8,9,11)
Instrument: Agilent 6530Â Q-TOF LC/MS
Instrument type: LC-ESI-QTOF
Ms type: MS2
Ion mode: NEGATIVE
Ionization: ESI
Collision energy: 40
Column name: NA
Retention time: 0.200 min
Base peak: 157.03618
Precursor m/z: 157.03618
Precursor type: [M-H]-
Precursor intensity: 194
m/z	relative intensity
42.0138	999
