Mass spectrum: CYTIDINE; LC-ESI-QFT; MS2; CE: 30eV;  [M-H]-
Name: CYTIDINE
Class: NA
Formula: C9H13N3O5
Exact mass: 243.08552
SMILES: NC1=NC(=O)N(C=C1)[C@@H]1O[C@H](CO)[C@@H](O)[C@H]1O
InChI: InChI=1S/C9H13N3O5/c10-5-1-2-12(9(16)11-5)8-7(15)6(14)4(3-13)17-8/h1-2,4,6-8,13-15H,3H2,(H2,10,11,16)/t4-,6-,7-,8-/m1/s1
Instrument: Q-Exactive Orbitrap, Thermo Scientfic; Ultimate 3000 HPLC, Thermo Scientfic
Instrument type: LC-ESI-QFT
Ms type: MS2
Ion mode: NEGATIVE
Ionization: ESI
Collision energy: 30eV
Column name: Acquity CSHC18
Retention time: 0.694 min
Base peak: 242.0782
Precursor m/z: 242.0782
Precursor type: [M-H]-
Precursor intensity: 141
m/z	relative intensity
52.7712	4
53.824	4
57.8241	5
57.8606	4
58.2089	4
61.9868	5
64.8311	4
66.0188	5
67.0287	44
69.1225	4
71.0122	6
80.9297	5
81.0442	114
91.0286	40
95.1393	5
97.6268	4
103.9187	7
104.9654	5
109.0391	999
110.0344	69
110.0426	30
116.9386	6
126.2733	5
149.9117	8
152.0451	84
165.3167	5
171.931	8
177.9677	5
198.81	7
242.0775	40
