Mass spectrum: 2,4-Diaminobutyric acid; ESI-TOF; MS2; CE: 6.0000000;  [M+H]+
Name: 2,4-Diaminobutyric acid
Class: NA
Formula: C4H10N2O2
Exact mass: 118.07423
SMILES: NCCC(N)C(O)=O
InChI: InChI=1S/C4H10N2O2/c5-2-1-3(6)4(7)8/h3H,1-2,5-6H2,(H,7,8)
Instrument: waters xevo g2 TOF
Instrument type: ESI-TOF
Ms type: MS2
Ion mode: POSITIVE
Ionization: ESI
Collision energy: 6.0000000
Column name: Acquity CSHC18
Retention time: 0.477 min
Base peak: 119.08223
Precursor m/z: 119.08223
Precursor type: [M+H]+
m/z	relative intensity
96.9613	121
101.0713	351
102.0917	91
103.0578	11
106.993	2
113.9643	99
118.0865	3
119.0824	136
128.0039	56
129.0317	22
133.9291	11
137.9721	72
138.9909	15
140.9629	27
141.9596	999
145.0181	18
158.0032	31
160.9881	14
162.9898	5
169.0307	5
174.009	27
174.9541	16
178.123	15
184.9866	89
191.0231	46
200.0722	8
200.9958	10
202.0985	3
203.0356	8
217.9998	13
219.0071	27
228.0669	15
246.0771	7
258.1721	17
272.0579	15
273.0639	18
275.1067	9
286.0722	6
288.0731	7
290.0675	116
291.0745	76
293.0772	11
295.0717	6
302.1965	11
313.0593	9
318.9353	3
408.1417	20
408.7816	1
463.0679	17
465.0697	6
508.07	7
580.1375	15
581.1398	6
582.1413	6
584.1323	2
