Mass spectrum: Propionyl-CoA; LC-ESI-ITFT; MS2; CE: 20;  [M+H]+
Name: Propionyl-CoA
Class: Lipids and lipid-like molecules; Fatty Acyls; Fatty acyl thioesters
Formula: C24H40N7O17P3S
Exact mass: 823.14142
SMILES: CCC(=O)SCCNC(=O)CCNC(=O)C(O)C(C)(C)COP(O)(=O)OP(O)(=O)OC[C@H]1O[C@H]([C@H](O)[C@@H]1OP(O)(O)=O)N1C=NC2=C1N=CN=C2N
InChI: InChI=1S/C24H40N7O17P3S/c1-4-15(33)52-8-7-26-14(32)5-6-27-22(36)19(35)24(2,3)10-45-51(42,43)48-50(40,41)44-9-13-18(47-49(37,38)39)17(34)23(46-13)31-12-30-16-20(25)28-11-29-21(16)31/h11-13,17-19,23,34-35H,4-10H2,1-3H3,(H,26,32)(H,27,36)(H,40,41)(H,42,43)(H2,25,28,29)(H2,37,38,39)/t13-,17-,18-,19?,23-/m1/s1
Instrument: Thermo Scientific Q-Exactive Focus
Instrument type: LC-ESI-ITFT
Ms type: MS2
Ion mode: POSITIVE
Ionization: ESI
Collision energy: 20
Column name: Acquity CSHC18
Retention time: 0.631 min
Base peak: 824.14868
Precursor m/z: 824.14868
Precursor type: [M+H]+
m/z	relative intensity
215.0846	114
317.1527	693
330.0591	18
397.1186	25
410.0253	37
415.1291	51
428.0362	262
508.0016	9
610.0696	13
824.1486	999
