Mass spectrum: 3,5-Dimethoxy-4-hydroxycinnamic acid; LC-ESI-QTOF; MS2; CE: 15.00;  [M+H]+
Name: 3,5-Dimethoxy-4-hydroxycinnamic acid
Class: NA
Formula: C11H12O5
Exact mass: 224.0685
SMILES: COC1=CC(=CC(=C1O)OC)C=CC(=O)O
InChI: InChI=1S/C11H12O5/c1-15-8-5-7(3-4-10(12)13)6-9(16-2)11(8)14/h3-6,14H,1-2H3,(H,12,13)
Instrument: Bruker MicrOTOF-Q
Instrument type: LC-ESI-QTOF
Ms type: MS2
Ion mode: POSITIVE
Ionization: ESI
Collision energy: 15.00
Column name: Acquity CSHC18
Retention time: NA
Base peak: 225.0757
Precursor m/z: 225.0757
Precursor type: [M+H]+
m/z	relative intensity
119.0473	28
129.0324	32
147.0433	34
148.047	35
164.0473	56
175.0389	72
176.0426	79
177.0188	86
179.0703	97
183.0651	108
192.0412	341
193.0456	610
207.0648	703
208.0683	999
