Mass spectrum: Berberine; LC-ESI-QTOF; MS2; CE: 17.71;  [M]+
Name: Berberine
Class: NA
Formula: [C20H18NO4]+
Exact mass: 336.1230
SMILES: COC1=C(C2=C[N+]3=C(C=C2C=C1)C4=CC5=C(C=C4CC3)OCO5)OC
InChI: InChI=1S/C20H18NO4/c1-22-17-4-3-12-7-16-14-9-19-18(24-11-25-19)8-13(14)5-6-21(16)10-15(12)20(17)23-2/h3-4,7-10H,5-6,11H2,1-2H3/q+1
Instrument: Bruker MicrOTOF-Q
Instrument type: LC-ESI-QTOF
Ms type: MS2
Ion mode: POSITIVE
Ionization: ESI
Collision energy: 17.71
Column name: Acquity CSHC18
Retention time: NA
Base peak: 336.1230
Precursor m/z: 336.1230
Precursor type: [M]+
m/z	relative intensity
292.0983	27
293.1018	31
304.0972	40
306.0782	72
320.0933	134
321.1022	161
322.1047	187
336.1308	466
337.1288	711
338.132	999
