Mass spectrum: ADENINE; LC-ESI-QTOF; MS2; CE: 10;  [M-H]-
Name: ADENINE
Class: NA
Formula: C5H5N5
Exact mass: 135.05450
SMILES: NC1=C2NC=NC2=NC=N1
InChI: InChI=1S/C5H5N5/c6-4-3-5(9-1-7-3)10-2-8-4/h1-2H,(H3,6,7,8,9,10)
Instrument: Agilent 6530Â Q-TOF LC/MS
Instrument type: LC-ESI-QTOF
Ms type: MS2
Ion mode: NEGATIVE
Ionization: ESI
Collision energy: 10
Column name: NA
Retention time: 0.200 min
Base peak: 134.04808
Precursor m/z: 134.04808
Precursor type: [M-H]-
Precursor intensity: 136
m/z	relative intensity
65.0178	213
92.0293	223
107.0483	476
134.068	999
