Mass spectrum: 6-(methylthio)hexyl-glucosinolate; LC-ESI-QTOF; MS2; CE: 50eV;  [M-H]-
Name: 6-(methylthio)hexyl-glucosinolate
Class: aliphatic glucosinolate
Formula: C14H27NO9S3
Exact mass: 449.0848
SMILES: O[C@H]1[C@@H](O)[C@@H](O)[C@H](S/C(CCCCCCSC)=N/OS(=O)(O)=O)O[C@@H]1CO
InChI: InChI=1S/C14H27NO9S3/c1-25-7-5-3-2-4-6-10(15-24-27(20,21)22)26-14-13(19)12(18)11(17)9(8-16)23-14/h9,11-14,16-19H,2-8H2,1H3,(H,20,21,22)/b15-10+/t9-,11-,12-,13-,14+/m1/s1
Instrument: TIMS-TOF Pro, Bruker Daltonik; Elute UHPLC System, Bruker Daltonik
Instrument type: LC-ESI-QTOF
Ms type: MS2
Ion mode: NEGATIVE
Ionization: ESI
Collision energy: 50eV
Column name: Acquity CSHC18
Retention time: 8.399 min
Base peak: 448.0697
Precursor m/z: 448.0697
Precursor type: [M-H]-
Precursor intensity: 5274.67
m/z	relative intensity
74.9892	222
79.957	69
96.9587	332
97.9455	32
448.0697	999
