Mass spectrum: Quercetin 3-glucuronide; LC-ESI-QFT; MS2; CE: NCE_15_30_70;  [M-H]-
Name: Quercetin 3-glucuronide
Class: NA
Formula: C21H18O13
Exact mass: 478.0747
SMILES: C1=CC(=C(C=C1C2=C(C(=O)C3=C(C=C(C=C3O2)O)O)OC4C(C(C(C(O4)C(=O)O)O)O)O)O)O
InChI: InChI=1S/C21H18O13/c22-7-4-10(25)12-11(5-7)32-17(6-1-2-8(23)9(24)3-6)18(13(12)26)33-21-16(29)14(27)15(28)19(34-21)20(30)31/h1-5,14-16,19,21-25,27-29H,(H,30,31)
Instrument: Thermo_Qexactive_Plus
Instrument type: LC-ESI-QFT
Ms type: MS2
Ion mode: NEGATIVE
Ionization: ESI
Collision energy: NCE_15_30_70
Column name: Acquity CSHC18
Retention time: 4.619 min
Base peak: 477.0682
Precursor m/z: 477.0682
Precursor type: [M-H]-
Precursor intensity: 558505700
m/z	relative intensity
59.0122	6
65.1426	6
69.046	6
69.8505	6
71.0124	7
75.35	7
78.8445	7
85.0283	7
92.3073	8
99.0073	8
103.0021	9
107.0129	9
108.9094	9
109.0275	10
113.0234	10
121.0286	11
151.0037	12
157.2631	12
163.003	13
169.0132	14
175.0243	15
179.0001	17
180.0004	17
185.0891	18
193.0136	26
211.0411	27
229.0507	28
235.0568	29
239.0341	31
245.0447	31
255.0304	32
257.0437	35
273.0419	39
283.0232	95
300.0245	119
301.035	157
302.0381	445
477.0715	999
