Mass spectrum: Hydroxykynurenine; ESI-TOF; MS2; CE: 6.0000000;  [M+H]+
Name: Hydroxykynurenine
Class: NA
Formula: C10H12N2O4
Exact mass: 224.07971
SMILES: NC(CC(=O)C1=C(N)C(O)=CC=C1)C(O)=O
InChI: InChI=1S/C10H12N2O4/c11-6(10(15)16)4-8(14)5-2-1-3-7(13)9(5)12/h1-3,6,13H,4,11-12H2,(H,15,16)
Instrument: waters xevo g2 TOF
Instrument type: ESI-TOF
Ms type: MS2
Ion mode: POSITIVE
Ionization: ESI
Collision energy: 6.0000000
Column name: Acquity CSHC18
Retention time: 0.585 min
Base peak: 225.08771
Precursor m/z: 225.08771
Precursor type: [M+H]+
m/z	relative intensity
96.962	58
99.9702	20
102.0469	11
110.061	113
111.0641	6
113.9646	48
114.9717	12
117.9813	4
120.0455	4
122.062	2
124.0644	1
131.9984	6
133.995	21
136.0401	85
137.043	7
138.0566	1
140.9959	28
142.9642	7
145.0192	6
150.0561	100
151.0584	9
152.0714	272
153.0745	21
154.0792	1
160.005	52
161.0468	19
162.0557	968
163.0585	72
164.0612	5
166.0508	74
175.0036	12
177.0664	78
178.0512	38
179.0394	27
180.0672	29
181.0617	25
184.0404	2
188.0351	97
189.0384	9
190.0501	37
191.0238	17
201.0646	3
204.0299	24
206.0455	999
207.0493	132
208.061	505
209.0643	38
209.9986	2
221.0563	88
223.0721	422
224.0743	54
225.0874	69
226.0913	6
