Mass spectrum: 16:0 Diether PC; ESI-TOF; MS2; CE: 6.0000000;  [M+H]+
Name: 16:0 Diether PC
Class: NA
Formula: C40H84NO6P
Exact mass: 705.60363
SMILES: [H]C([H])([H])C([H])([H])C([H])([H])C([H])([H])C([H])([H])C([H])([H])C([H])([H])C([H])([H])C([H])([H])C([H])([H])C([H])([H])C([H])([H])C([H])([H])C([H])([H])C([H])([H])C([H])([H])OC([H])([H])C([H])(OC([H])([H])C([H])([H])C([H])([H])C([H])([H])C([H])([H])C([H])([H])C([H])([H])C([H])([H])C([H])([H])C([H])([H])C([H])([H])C([H])([H])C([H])([H])C([H])([H])C([H])([H])C([H])([H])[H])C([H])([H])OP(=O)([O-])OC([H])([H])C([H])([H])[N+](C([H])([H])[H])(C([H])([H])[H])C([H])([H])[H]
InChI: InChI=1S/C40H84NO6P/c1-6-8-10-12-14-16-18-20-22-24-26-28-30-32-35-44-38-40(39-47-48(42,43)46-37-34-41(3,4)5)45-36-33-31-29-27-25-23-21-19-17-15-13-11-9-7-2/h40H,6-39H2,1-5H3
Instrument: waters xevo g2 TOF
Instrument type: ESI-TOF
Ms type: MS2
Ion mode: POSITIVE
Ionization: ESI
Collision energy: 6.0000000
Column name: Acquity CSHC18
Retention time: 11.648 min
Base peak: 706.61163
Precursor m/z: 706.61163
Precursor type: [M+H]+
m/z	relative intensity
99.9692	1
125.9863	1
364.7922	1
372.7832	89
373.2847	45
373.7863	11
374.2878	2
374.7818	1
380.2702	1
380.7692	12
381.2711	6
381.7707	7
382.2713	2
382.7682	3
398.799	11
399.3002	5
406.7842	1
437.7624	2
438.2621	1
445.7473	1
704.0069	1
704.5084	1
706.611	999
707.6146	232
