Mass spectrum: Ascorbic acid; LC-ESI-ITFT; MS2; CE: 100;  [M-H]-
Name: Ascorbic acid
Class: Organoheterocyclic compounds; Dihydrofurans; Furanones
Formula: C6H8O6
Exact mass: 176.03209
SMILES: [H][C@@]1(OC(=O)C(O)=C1O)[C@@H](O)CO
InChI: InChI=1S/C6H8O6/c7-1-2(8)5-3(9)4(10)6(11)12-5/h2,5,7-10H,1H2/t2-,5+/m0/s1
Instrument: Thermo Scientific Q-Exactive Focus
Instrument type: LC-ESI-ITFT
Ms type: MS2
Ion mode: NEGATIVE
Ionization: ESI
Collision energy: 100
Column name: Acquity CSHC18
Retention time: 2.070 min
Base peak: 175.02481
Precursor m/z: 175.02481
Precursor type: [M-H]-
m/z	relative intensity
72.5974	950
83.5041	955
94.4055	988
128.6561	965
146.5754	975
150.8756	975
151.7398	999
155.3989	970
160.5167	996
168.5407	937
