Mass spectrum: Isorhamnetin 3-sophoroside; LC-ESI-QTOF; MS2; CE: 20-40eV;  [M+H]+
Name: Isorhamnetin 3-sophoroside
Class: Flavonoid O-glycosides
Formula: C28H32O17
Exact mass: 640.1639
SMILES: COC=1C=C(C=CC1O)C2=C(C(C3=C(C=C(C=C3O2)O)O)=O)OC4(C(C(C(C(CO)(O4)[H])(O)[H])(O)[H])(OC5(C(C(C(C(CO)(O5)[H])(O)[H])(O)[H])(O)[H])[H])[H])[H]
InChI: InChI=1S/C28H32O17/c1-40-13-4-9(2-3-11(13)32)24-25(20(36)17-12(33)5-10(31)6-14(17)41-24)44-28-26(22(38)19(35)16(8-30)43-28)45-27-23(39)21(37)18(34)15(7-29)42-27/h2-6,15-16,18-19,21-23,26-35,37-39H,7-8H2,1H3
Instrument: Impact II, Bruker; Dionex 3000, Thermo Scientific
Instrument type: LC-ESI-QTOF
Ms type: MS2
Ion mode: POSITIVE
Ionization: ESI
Collision energy: 20-40eV
Column name: Acquity CSHC18
Retention time: 4.684 min
Base peak: 641.1711
Precursor m/z: 641.1711
Precursor type: [M+H]+
Precursor intensity: 23236.63
m/z	relative intensity
177.0365	811
324.0793	999
