Mass spectrum: Noscapine; LC-ESI-QTOF; MS2; CE: 24.76;  [M+H2O-H]-
Name: Noscapine
Class: NA
Formula: C22H23NO7
Exact mass: 413.1475
SMILES: CN1CCC2=CC3=C(C(=C2C1C4C5=C(C(=C(C=C5)OC)OC)C(=O)O4)OC)OCO3
InChI: InChI=1S/C22H23NO7/c1-23-8-7-11-9-14-20(29-10-28-14)21(27-4)15(11)17(23)18-12-5-6-13(25-2)19(26-3)16(12)22(24)30-18/h5-6,9,17-18H,7-8,10H2,1-4H3
Instrument: Bruker MicrOTOF-Q
Instrument type: LC-ESI-QTOF
Ms type: MS2
Ion mode: NEGATIVE
Ionization: ESI
Collision energy: 24.76
Column name: Acquity CSHC18
Retention time: NA
Base peak: 430.1507
Precursor m/z: 430.1507
Precursor type: [M+H2O-H]-
m/z	relative intensity
45.6163	184
46.6929	106
47.1405	59
48.0879	89
52.1716	75
53.8489	98
54.4153	72
55.5616	57
56.876	59
57.6311	98
60.0924	72
62.7692	97
63.7857	62
69.6228	93
70.2692	83
70.8537	79
71.9023	67
77.7321	67
80.2156	93
82.1593	67
83.6381	108
84.932	93
86.0782	75
86.5203	83
87.474	101
88.3802	64
90.2254	92
91.4782	101
92.3086	80
92.7102	62
93.8155	70
94.829	85
98.4615	83
99.9837	101
100.9294	64
102.2783	90
105.1157	76
105.6615	96
106.6375	96
107.8757	110
108.5564	54
109.2585	116
109.8687	93
110.6786	57
111.9769	54
112.9371	72
114.1902	96
114.7911	70
116.4793	103
117.9079	77
119.178	94
121.2456	86
121.9148	72
123.2943	75
124.8436	105
125.6335	106
126.7992	83
127.3562	93
129.8155	77
130.5151	106
133.101	93
133.515	72
135.2073	102
136.1832	725
137.0092	62
137.4117	62
140.2675	112
141.0987	88
142.1528	92
142.9168	51
145.6814	77
146.3388	103
146.8897	103
148.2355	80
149.2241	64
151.1107	166
152.0082	630
152.8535	116
153.8138	92
154.7649	88
155.267	132
156.0479	75
161.5598	55
163.2435	106
165.9875	59
167.1415	102
168.6938	137
169.6082	57
171.5201	89
172.4146	101
176.3212	62
179.0049	70
180.0084	913
180.4403	57
180.9767	88
181.5777	72
186.0594	85
187.9694	72
188.5714	101
190.8302	93
194.9117	999
196.0907	210
197.0365	197
202.4276	57
204.8363	54
216.0695	90
225.3627	51
232.735	57
236.4904	54
240.5981	83
242.9169	51
252.0803	108
253.0905	98
267.2202	51
273.7587	62
279.1704	68
280.1085	62
283.0361	57
296.0366	103
304.1748	62
309.0998	90
311.0907	88
313.072	51
323.9818	61
327.1425	59
328.3931	51
340.0494	75
341.7014	75
421.3311	75
446.715	54
473.7327	64
487.9867	80
490.2812	129
541.9006	57
563.5314	85
566.2233	90
567.6814	57
652.0848	72
671.2997	59
706.1011	67
821.928	67
973.5219	93
974.7575	54
981.2314	106
