Mass spectrum: L-Aspartyl-L-phenylalanine; ESI-TOF; MS2; CE: 6.0000000;  [M+H]+
Name: L-Aspartyl-L-phenylalanine
Class: NA
Formula: C13H16N2O5
Exact mass: 280.10592
SMILES: NC(CC(O)=O)C(=O)NC(CC1=CC=CC=C1)C(O)=O
InChI: InChI=1S/C13H16N2O5/c14-9(7-11(16)17)12(18)15-10(13(19)20)6-8-4-2-1-3-5-8/h1-5,9-10H,6-7,14H2,(H,15,18)(H,16,17)(H,19,20)
Instrument: waters xevo g2 TOF
Instrument type: ESI-TOF
Ms type: MS2
Ion mode: POSITIVE
Ionization: ESI
Collision energy: 6.0000000
Column name: Acquity CSHC18
Retention time: 1.976 min
Base peak: 281.11392
Precursor m/z: 281.11392
Precursor type: [M+H]+
m/z	relative intensity
91.055	1
102.0925	1
103.0544	1
130.009	28
130.0654	3
144.0247	25
149.0036	18
157.0758	1
158.0609	1
166.0871	1
173.9817	49
175.0868	1
182.1902	46
203.0819	118
221.0929	23
245.0925	999
245.0929	138
263.1032	517
285.0838	66
295.1286	67
301.0494	48
309.1443	130
317.0235	1
342.0761	80
348.042	38
358.0489	27
360.0462	24
389.0673	23
