Mass spectrum: Lyso PG 16:0; LC-ESI-QTOF; MS2; CE: 20-40eV;  [M-H]-
Name: Lyso PG 16:0
Class: Lipid
Formula: C22H45O9P
Exact mass: 484.2801
SMILES: CCCCCCCCCCCCCCCC(=O)OCC(COP(O)(=O)OCC(CO)(O)[H])(O)[H]
InChI: InChI=1S/C22H45O9P/c1-2-3-4-5-6-7-8-9-10-11-12-13-14-15-22(26)29-17-21(25)19-31-32(27,28)30-18-20(24)16-23/h20-21,23-25H,2-19H2,1H3,(H,27,28)
Instrument: Impact II, Bruker; Dionex 3000, Thermo Scientific
Instrument type: LC-ESI-QTOF
Ms type: MS2
Ion mode: POSITIVE
Ionization: ESI
Collision energy: 20-40eV
Column name: Acquity CSHC18
Retention time: 20.391 min
Base peak: 483.2725
Precursor m/z: 483.2725
Precursor type: [M-H]-
Precursor intensity: 21233.88
m/z	relative intensity
152.998	35
194.92	30
245.0435	74
254.9672	35
255.2328	999
256.2345	131
283.1162	37
483.2722	773
