Mass spectrum: DIHYDROURACIL; LC-ESI-QFT; MS2; CE: 30eV;  [M+H]+
Name: DIHYDROURACIL
Class: NA
Formula: C4H6N2O2
Exact mass: 114.04293
SMILES: O=C1CCNC(=O)N1
InChI: InChI=1S/C4H6N2O2/c7-3-1-2-5-4(8)6-3/h1-2H2,(H2,5,6,7,8)
Instrument: Q-Exactive Orbitrap, Thermo Scientfic; Ultimate 3000 HPLC, Thermo Scientfic
Instrument type: LC-ESI-QFT
Ms type: MS2
Ion mode: POSITIVE
Ionization: ESI
Collision energy: 30eV
Column name: Acquity CSHC18
Retention time: 0.699 min
Base peak: 115.0502
Precursor m/z: 115.0502
Precursor type: [M+H]+
Precursor intensity: 129
m/z	relative intensity
52.3326	1
55.0187	230
55.0551	3
55.9352	16
56.0139	10
57.0343	2
59.0499	4
60.0452	4
61.0404	75
61.2961	1
61.3131	1
66.985	1
69.0706	44
70.0295	125
70.0659	7
71.0307	1
71.0328	12
72.0451	171
72.938	2
73.0404	516
73.0655	4
74.0244	8
74.0438	4
74.0608	14
74.097	2
75.0268	12
79.0547	2
86.0607	1
87.056	18
88.0763	24
89.8469	1
90.9482	1
91.0508	1
92.6656	1
93.0373	26
97.0119	9
97.0654	22
98.0243	142
114.0321	7
114.0384	41
114.0667	13
114.0704	1
114.0919	24
114.972	11
115.0397	17
115.0507	999
115.0759	8
115.095	2
115.8957	1
116.0347	42
116.0541	11
116.071	9
116.1074	13
117.6578	1
127.1076	1
128.9511	2
133.0613	2
