Mass spectrum: 3-Pyridylacetic acid; ESI-TOF; MS2; CE: 6.0000000;  [M+H]+
Name: 3-Pyridylacetic acid
Class: NA
Formula: C7H7NO2
Exact mass: 137.04768
SMILES: OC(=O)CC1=CN=CC=C1
InChI: InChI=1S/C7H7NO2/c9-7(10)4-6-2-1-3-8-5-6/h1-3,5H,4H2,(H,9,10)
Instrument: waters xevo g2 TOF
Instrument type: ESI-TOF
Ms type: MS2
Ion mode: POSITIVE
Ionization: ESI
Collision energy: 6.0000000
Column name: Acquity CSHC18
Retention time: 0.551 min
Base peak: 138.05568
Precursor m/z: 138.05568
Precursor type: [M+H]+
m/z	relative intensity
72.9392	1
93.0583	3
95.9738	1
96.9619	27
99.9698	16
110.0607	4
113.0791	2
130.0087	2
131.9504	9
133.929	3
138.1733	999
139.0794	167
139.9641	16
