Mass spectrum: 3,5-Diiodo-L-tyrosine; ESI-TOF; MS2; CE: 0.6458333;  [M+H]+
Name: 3,5-Diiodo-L-tyrosine
Class: NA
Formula: C9H9I2NO3
Exact mass: 432.86719
SMILES: NC(CC1=CC(I)=C(O)C(I)=C1)C(O)=O
InChI: InChI=1S/C9H9I2NO3/c10-5-1-4(2-6(11)8(5)13)3-7(12)9(14)15/h1-2,7,13H,3,12H2,(H,14,15)
Instrument: waters xevo g2 TOF
Instrument type: ESI-TOF
Ms type: MS2
Ion mode: POSITIVE
Ionization: ESI
Collision energy: 0.6458333
Column name: Acquity CSHC18
Retention time: 2.024 min
Base peak: 433.87519
Precursor m/z: 433.87519
Precursor type: [M+H]+
m/z	relative intensity
89.0392	13
92.0497	3
105.0342	1
106.0663	19
107.0501	47
108.0534	3
116.0494	8
117.0347	12
119.0487	1
133.053	64
134.0606	124
135.0449	11
145.0289	3
162.0309	2
163.0404	18
215.944	4
219.9385	124
220.9422	8
232.9458	33
233.9541	115
234.9569	9
243.9392	123
244.9442	19
245.9521	27
246.9257	21
247.9333	32
248.9367	2
251.1511	5
259.9574	81
260.9653	961
261.9592	172
262.9558	8
271.9331	155
273.0358	17
273.9425	2
288.936	57
289.9441	893
290.9474	5
291.9472	9
315.8905	2
347.9674	1
359.8853	1
370.8426	81
371.8479	7
372.857	4
374.8377	303
375.8405	25
387.8957	999
388.8723	197
389.8746	13
398.8375	47
399.8407	3
416.8482	293
417.851	31
418.8537	1
433.9618	152
434.8773	34
