Mass spectrum: Phenylalanine; LC-ESI-QTOF; MS2; CE: 10;  [M+H]+
Name: Phenylalanine
Class: NA
Formula: C9H11NO2
Exact mass: 165.07898
SMILES: C1=CC=C(C=C1)CC(C(=O)O)N
InChI: InChI=1S/C9H11NO2/c10-8(9(11)12)6-7-4-2-1-3-5-7/h1-5,8H,6,10H2,(H,11,12)
Instrument: impact II
Instrument type: LC-ESI-QTOF
Ms type: MS2
Ion mode: POSITIVE
Ionization: ESI
Collision energy: 10
Column name: Acquity CSHC18
Retention time: 1.786 min
Base peak: 166.08630
Precursor m/z: 166.08630
Precursor type: [M+H]+
m/z	relative intensity
120.0809	999
166.0862	305
