Mass spectrum: 5-trans U-46619; ESI-TOF; MS2; CE: 6.0000000;  [M+H]+
Name: 5-trans U-46619
Class: NA
Formula: C21H34O4
Exact mass: 350.24571
SMILES: CCCCC[C@H](O)/C=C/[C@H]1C2OCC(C2)[C@@H]1C/C=C/CCCC(O)=O
InChI: InChI=1S/C21H34O4/c1-2-3-6-9-17(22)12-13-19-18(16-14-20(19)25-15-16)10-7-4-5-8-11-21(23)24/h4,7,12-13,16-20,22H,2-3,5-6,8-11,14-15H2,1H3,(H,23,24)/b7-4+,13-12+/t16?,17-,18-,19+,20?/m0/s1
Instrument: waters xevo g2 TOF
Instrument type: ESI-TOF
Ms type: MS2
Ion mode: POSITIVE
Ionization: ESI
Collision energy: 6.0000000
Column name: Acquity CSHC18
Retention time: 4.230 min
Base peak: 351.25371
Precursor m/z: 351.25371
Precursor type: [M+H]+
m/z	relative intensity
119.088	7
121.1026	3
131.0865	5
133.1033	4
135.1178	4
137.1347	2
145.1024	4
147.1176	9
157.1025	1
161.0975	13
171.1175	4
175.1489	6
187.1497	8
189.1466	8
199.1122	9
201.1652	6
203.1444	3
207.1355	2
213.1286	5
215.1776	2
217.1592	98
218.1988	27
219.2067	2
223.1578	5
227.1631	1
231.139	8
235.1689	9
237.1739	5
241.1595	1
247.2054	10
255.2091	4
259.2048	26
260.2087	2
263.1985	6
265.2158	127
266.2195	16
269.2257	30
279.2092	25
280.2137	4
285.2193	11
286.2228	3
287.2372	17
288.2397	2
289.2146	12
297.2225	169
298.2276	29
301.1788	5
303.2324	59
304.2342	12
305.247	21
306.2483	3
315.2724	520
316.2351	234
317.2409	30
333.2431	999
334.2427	204
335.2496	25
349.2391	1
352.213	3
