Mass spectrum: Glucosamine 6-phosphate; LC-ESI-QTOF; MS2; CE: 30;  [M+H]+
Name: Glucosamine 6-phosphate
Class: Hexose phosphates
Formula: C6H14NO8P
Exact mass: 259.04570
SMILES: N[C@H]1[C@@H](O)O[C@H](COP(O)(O)=O)[C@@H](O)[C@@H]1O
InChI: InChI=1S/C6H14NO8P/c7-3-5(9)4(8)2(15-6(3)10)1-14-16(11,12)13/h2-6,8-10H,1,7H2,(H2,11,12,13)/t2-,3-,4-,5-,6+/m1/s1
Instrument: impact II
Instrument type: LC-ESI-QTOF
Ms type: MS2
Ion mode: POSITIVE
Ionization: ESI
Collision energy: 30
Column name: Acquity CSHC18
Retention time: 1.899 min
Base peak: 260.05280
Precursor m/z: 260.05280
Precursor type: [M+H]+
m/z	relative intensity
80.0497	240
81.034	118
84.0447	524
98.06	519
98.9841	338
108.0443	738
109.0285	390
126.0548	999
144.0653	259
