Mass spectrum: 16,16-dimethyl Prostaglandin E2; ESI-TOF; MS2; CE: 0.6458333;  [M+H]+
Name: 16,16-dimethyl Prostaglandin E2
Class: NA
Formula: C22H36O5
Exact mass: 380.25627
SMILES: O=C1[C@H](C/C=C\CCCC(O)=O)[C@@H](/C=C/[C@@H](O)C(C)(C)CCCC)[C@H](O)C1
InChI: InChI=1S/C22H36O5/c1-4-5-14-22(2,3)20(25)13-12-17-16(18(23)15-19(17)24)10-8-6-7-9-11-21(26)27/h6,8,12-13,16-17,19-20,24-25H,4-5,7,9-11,14-15H2,1-3H3,(H,26,27)/b8-6-,13-12+/t16-,17-,19-,20-/m1/s1
Instrument: waters xevo g2 TOF
Instrument type: ESI-TOF
Ms type: MS2
Ion mode: POSITIVE
Ionization: ESI
Collision energy: 0.6458333
Column name: Acquity CSHC18
Retention time: 4.044 min
Base peak: 381.26427
Precursor m/z: 381.26427
Precursor type: [M+H]+
m/z	relative intensity
69.0698	190
81.0704	170
91.0553	283
93.0716	318
95.0866	343
105.071	334
107.0861	206
109.1012	88
117.0709	176
119.0692	461
121.1032	186
129.0718	220
131.0868	366
133.1024	315
135.1174	107
137.1329	46
141.0727	111
143.0865	211
145.1025	542
147.0812	164
149.096	141
154.0768	39
155.0859	153
157.1021	236
159.1187	234
163.1129	147
167.0956	37
171.1185	198
173.0972	181
175.1481	95
181.1278	16
183.1177	218
185.1344	123
187.112	237
189.093	109
197.0976	137
201.1092	173
205.0532	80
209.1242	54
211.1118	102
213.1634	71
215.143	141
217.1237	61
219.1711	25
221.0469	53
225.1644	98
229.1235	131
233.0711	74
239.1512	31
243.1738	274
251.0567	50
253.1598	95
258.1622	33
267.2154	34
271.1708	36
273.2187	27
275.0683	73
281.2294	69
299.2355	46
301.2155	69
304.3033	54
309.2224	445
310.2249	56
327.2326	999
328.2349	132
329.2376	17
331.1271	50
345.2432	596
357.2014	71
363.254	153
379.1479	34
