Mass spectrum: Cysteamine; LC-ESI-ITFT; MS2; CE: 30;  [M+H]+
Name: Cysteamine
Class: Organosulfur compounds; Thiols; Alkylthiols
Formula: C2H7NS
Exact mass: 77.02992
SMILES: NCCS
InChI: InChI=1S/C2H7NS/c3-1-2-4/h4H,1-3H2
Instrument: Thermo Scientific Q-Exactive Focus
Instrument type: LC-ESI-ITFT
Ms type: MS2
Ion mode: POSITIVE
Ionization: ESI
Collision energy: 30
Column name: Acquity CSHC18
Retention time: 0.913 min
Base peak: 78.03720
Precursor m/z: 78.03720
Precursor type: [M+H]+
m/z	relative intensity
51.8263	16
61.0111	999
72.1439	14
74.3214	15
77.3573	13
78.2088	13
82.5658	16
85.3319	14
88.1472	14
95.5922	17
