Mass spectrum: LIPOAMIDE; LC-ESI-QTOF; MS2; CE: 20;  [M+H]+
Name: LIPOAMIDE
Class: NA
Formula: C8H15NOS2
Exact mass: 205.05951
SMILES: NC(=O)CCCCC1CCSS1
InChI: InChI=1S/C8H15NOS2/c9-8(10)4-2-1-3-7-5-6-11-12-7/h7H,1-6H2,(H2,9,10)
Instrument: Agilent 6530Â Q-TOF LC/MS
Instrument type: LC-ESI-QTOF
Ms type: MS2
Ion mode: POSITIVE
Ionization: ESI
Collision energy: 20
Column name: NA
Retention time: 0.200 min
Base peak: 206.06603
Precursor m/z: 206.06603
Precursor type: [M+H]+
Precursor intensity: 100.5
m/z	relative intensity
41.0534	23
42.0294	24
43.0455	24
44.0284	25
44.9919	25
47.0052	27
51.0268	27
53.0462	27
55.0623	27
55.2947	27
56.0598	27
57.056	28
57.9834	28
59.0355	28
60.0415	29
61.0269	29
64.9495	29
65.0511	29
66.0464	30
67.0868	30
67.3264	31
68.0572	31
69.0716	31
70.0623	31
71.0257	33
72.0523	33
73.0337	35
77.0648	35
78.0541	36
79.042	36
80.0669	37
81.0906	38
82.043	40
83.0688	42
84.0485	42
85.0391	42
86.0746	47
87.0513	51
88.0272	52
91.0832	54
92.0594	59
92.5329	59
93.1045	60
93.4614	60
93.9829	63
94.0857	69
95.1086	74
96.0976	77
97.0657	79
98.1024	80
99.0555	80
100.9208	82
101.3625	84
101.9808	87
103.0409	92
104.0654	96
105.0717	98
105.3027	104
105.4556	114
105.6558	115
105.7707	126
106.0981	128
107.101	143
107.3919	147
109.0104	148
110.042	151
111.0453	152
112.0682	155
113.0685	158
115.0792	174
119.0194	180
120.975	206
121.0759	206
123.0832	207
124.0835	211
125.0526	227
127.1215	246
127.4381	270
127.694	279
127.9463	345
128.323	373
129.0121	392
135.0471	404
137.0727	409
138.081	431
140.1223	521
143.0067	553
145.0253	610
147.0325	646
155.0663	658
161.0915	724
161.4437	745
161.7125	767
171.0632	925
189.0727	999
