Mass spectrum: Methylimidazoleacetic acid; LC-ESI-ITFT; MS2; CE: 30;  [M+H]+
Name: Methylimidazoleacetic acid
Class: Organoheterocyclic compounds; Azoles; Imidazoles
Formula: C6H8N2O2
Exact mass: 140.05858
SMILES: CN1C=NC(CC(O)=O)=C1
InChI: InChI=1S/C6H8N2O2/c1-8-3-5(7-4-8)2-6(9)10/h3-4H,2H2,1H3,(H,9,10)
Instrument: Thermo Scientific Q-Exactive Focus
Instrument type: LC-ESI-ITFT
Ms type: MS2
Ion mode: POSITIVE
Ionization: ESI
Collision energy: 30
Column name: Acquity CSHC18
Retention time: 0.914 min
Base peak: 141.06586
Precursor m/z: 141.06586
Precursor type: [M+H]+
m/z	relative intensity
54.0344	148
68.0499	330
81.0451	30
82.7873	3
92.5239	4
95.0606	999
96.0685	16
143.4118	3
151.4764	3
159.9342	3
