Mass spectrum: 6-Epi-7-isocucurbic acid glucoside; LC-ESI-QTOF; MS2; CE: 20-40eV;  [M+NH4]+
Name: 6-Epi-7-isocucurbic acid glucoside
Class: O-glycoside coumpond
Formula: C18H30O8
Exact mass: 374.1941
SMILES: CCC(=C(CC1C(CCC1OC2C(C(C(C(CO)O2)O)O)O)CC(=O)O)[H])[H]
InChI: InChI=1S/C18H30O8/c1-2-3-4-5-11-10(8-14(20)21)6-7-12(11)25-18-17(24)16(23)15(22)13(9-19)26-18/h3-4,10-13,15-19,22-24H,2,5-9H2,1H3,(H,20,21)
Instrument: Impact II, Bruker; Dionex 3000, Thermo Scientific
Instrument type: LC-ESI-QTOF
Ms type: MS2
Ion mode: POSITIVE
Ionization: ESI
Collision energy: 20-40eV
Column name: Acquity CSHC18
Retention time: 6.108 min
Base peak: 392.2276
Precursor m/z: 392.2276
Precursor type: [M+NH4]+
Precursor intensity: 69697.13
m/z	relative intensity
97.046	17
98.0491	33
107.0665	78
133.082	89
135.0983	112
136.0996	201
137.1114	209
153.1095	999
