Mass spectrum: GLUTAMINE; LC-ESI-QFT; MS2; CE: 30eV;  [M+H]+
Name: GLUTAMINE
Class: NA
Formula: C5H10N2O3
Exact mass: 146.06914
SMILES: N[C@@H](CCC(N)=O)C(O)=O
InChI: InChI=1S/C5H10N2O3/c6-3(5(9)10)1-2-4(7)8/h3H,1-2,6H2,(H2,7,8)(H,9,10)/t3-/m0/s1
Instrument: Q-Exactive Orbitrap, Thermo Scientfic; Ultimate 3000 HPLC, Thermo Scientfic
Instrument type: LC-ESI-QFT
Ms type: MS2
Ion mode: POSITIVE
Ionization: ESI
Collision energy: 30eV
Column name: Acquity CSHC18
Retention time: 0.555 min
Base peak: 147.0764
Precursor m/z: 147.0764
Precursor type: [M+H]+
Precursor intensity: 139
m/z	relative intensity
56.0503	7
60.9181	1
64.1028	1
84.0451	852
84.0815	6
85.0291	6
85.0483	12
85.2329	1
93.488	1
97.0082	2
101.0715	77
102.0521	1
102.0555	37
102.0749	1
105.0039	2
119.086	1
123.9649	2
124.9775	1
126.877	1
130.0502	999
130.0864	5
131.0535	25
146.982	1
147.0441	1
147.0767	96
147.5324	1
148.0191	2
148.04	1
148.0801	1
148.0968	2
153.719	1
165.8971	1
165.9921	1
