Mass spectrum: 1a,1b-dihomo Prostaglandin E1; ESI-TOF; MS2; CE: 0.6458333;  [M+H]+
Name: 1a,1b-dihomo Prostaglandin E1
Class: NA
Formula: C22H38O5
Exact mass: 382.27192
SMILES: CCCCCC(O)/C=C/[C@H]1C(O)CC(=O)C1CCCCCCCCC(=O)O
InChI: InChI=1S/C22H38O5/c1-2-3-8-11-17(23)14-15-19-18(20(24)16-21(19)25)12-9-6-4-5-7-10-13-22(26)27/h14-15,17-19,21,23,25H,2-13,16H2,1H3,(H,26,27)/b15-14+/t17?,18?,19-,21?/m1/s1
Instrument: waters xevo g2 TOF
Instrument type: ESI-TOF
Ms type: MS2
Ion mode: POSITIVE
Ionization: ESI
Collision energy: 0.6458333
Column name: Acquity CSHC18
Retention time: 4.152 min
Base peak: 383.27992
Precursor m/z: 383.27992
Precursor type: [M+H]+
m/z	relative intensity
69.0696	48
79.0553	63
81.0702	197
91.0545	118
93.0702	241
95.0861	264
97.1014	29
105.0707	319
107.0872	161
109.102	153
117.0709	193
121.0837	166
123.1164	60
129.0701	93
131.0865	383
133.0662	177
135.1179	75
143.0862	87
145.1023	218
147.082	255
149.1335	69
159.1172	121
161.1338	139
162.1332	16
163.1503	33
171.1181	69
173.1332	173
174.1372	15
175.1501	97
181.101	21
183.1185	14
185.1331	105
187.1486	158
199.1504	56
202.1119	2
203.1441	177
205.1589	35
219.1397	2
221.1537	32
229.1589	15
231.1744	42
245.1887	15
273.1887	18
283.2441	2
285.2231	2
289.2517	33
291.23	2
293.2484	2
294.2486	2
301.253	379
302.255	72
303.2309	38
304.2341	2
305.1773	8
311.2364	87
312.2354	14
317.2464	129
318.2497	29
319.2633	94
320.2686	2
326.3764	54
327.3841	2
329.2477	999
330.2507	222
331.2556	2
333.2114	68
345.1523	24
347.2576	184
348.2174	32
361.2733	2
365.2688	2
366.2731	2
367.2745	2
384.2445	17
384.7427	2
