Mass spectrum: Phenylacetylglycine; ESI-TOF; MS2; CE: 6.0000000;  [M+H]+
Name: Phenylacetylglycine
Class: NA
Formula: C10H11NO3
Exact mass: 193.07389
SMILES: OC(=O)CNC(=O)CC1=CC=CC=C1
InChI: InChI=1S/C10H11NO3/c12-9(11-7-10(13)14)6-8-4-2-1-3-5-8/h1-5H,6-7H2,(H,11,12)(H,13,14)
Instrument: waters xevo g2 TOF
Instrument type: ESI-TOF
Ms type: MS2
Ion mode: POSITIVE
Ionization: ESI
Collision energy: 6.0000000
Column name: Acquity CSHC18
Retention time: 2.111 min
Base peak: 194.08189
Precursor m/z: 194.08189
Precursor type: [M+H]+
m/z	relative intensity
76.0403	154
77.0433	3
91.055	36
96.9844	12
113.9644	20
137.0326	2
144.0248	1
146.0387	2
148.0476	15
149.0808	3
166.0651	4
173.0292	7
176.0469	22
177.0742	7
178.0171	2
194.0817	999
195.0849	128
196.0871	14
199.0884	2
200.0895	31
201.0965	1
203.0037	8
205.0188	15
206.0362	4
208.097	4
210.0523	1
215.9377	537
218.0689	15
230.0789	22
231.0565	1
232.0291	26
233.0334	2
235.0407	7
238.0455	4
245.0362	2
247.055	2
248.0016	1
249.0099	5
250.0039	4
251.9987	1
259.1142	3
264.0522	4
273.0482	5
274.0892	1
279.0321	5
294.0059	3
307.0603	9
319.105	7
330.0857	7
336.0637	6
336.5498	2
338.0711	5
339.0727	1
353.0944	8
354.0979	1
363.131	1
368.0812	20
369.0851	2
392.0804	1
396.0778	2
397.0831	2
399.0848	15
400.0866	3
401.034	3
403.0814	1
409.1251	12
410.1278	4
411.1133	41
412.1171	9
413.12	1
422.11	1
425.1018	194
426.1052	48
427.1054	9
428.1067	1
429.0975	5
431.1134	10
432.1222	1
432.5846	5
433.0895	4
436.0739	4
437.0751	1
438.1542	7
439.077	8
440.0669	209
441.0714	127
442.0745	30
443.0743	50
444.0783	12
445.0715	20
446.0728	5
447.0839	3
448.0999	5
449.1005	1
464.1008	5
465.1014	1
466.0753	2
468.0991	2
495.0572	4
548.0954	1
602.199	3
604.1892	1
618.1756	35
619.1778	11
620.1828	2
631.1468	3
632.1525	1
633.1395	59
634.1458	25
635.146	6
636.1478	11
638.1422	4
655.1211	14
656.123	7
657.1276	1
672.0927	3
674.097	1
688.0681	2
689.0809	1
703.1081	1
841.2149	2
864.1586	3
870.1757	19
871.1794	9
872.1788	1
879.1193	2
880.1283	3
882.1315	1
1072.1914	2
1073.1967	1
1085.239	1
