Mass spectrum: Aspartic acid; LC-ESI-QTOF; MS2; CE: 15 / 50;  [M+H]+
Name: Aspartic acid
Class: NA
Formula: C4H7NO4
Exact mass: 133.03751
SMILES: C(C(C(=O)O)N)C(=O)O
InChI: InChI=1S/C4H7NO4/c5-2(4(8)9)1-3(6)7/h2H,1,5H2,(H,6,7)(H,8,9)
Instrument: impact II
Instrument type: LC-ESI-QTOF
Ms type: MS2
Ion mode: POSITIVE
Ionization: ESI
Collision energy: 15 / 50
Column name: Acquity CSHC18
Retention time: 0.558 min
Base peak: 134.04470
Precursor m/z: 134.04470
Precursor type: [M+H]+
m/z	relative intensity
46.0292	368
74.0242	999
88.0392	727
116.0342	102
134.0442	132
