Mass spectrum: Alantolactone; LC-ESI-ITFT; MS2; CE: 50eV;  [M+H]+
Name: Alantolactone
Class: Sesquiterpenelactone; Eudesmanolide
Formula: C15H20O2
Exact mass: 232.1463
SMILES: C[C@H]1CCC[C@]2(C1=C[C@H]3[C@@H](C2)OC(=O)C3=C)C
InChI: InChI=1S/C15H20O2/c1-9-5-4-6-15(3)8-13-11(7-12(9)15)10(2)14(16)17-13/h7,9,11,13H,2,4-6,8H2,1,3H3/t9-,11+,13+,15+/m0/s1
Instrument: Q Exactive Plus, ThermoFisher Scientific
Instrument type: LC-ESI-ITFT
Ms type: MS2
Ion mode: POSITIVE
Ionization: ESI
Collision energy: 50eV
Column name: Acquity CSHC18
Retention time: 13.936 min
Base peak: 233.1537
Precursor m/z: 233.1537
Precursor type: [M+H]+
Precursor intensity: 264966400
m/z	relative intensity
51.9259	29
54.1086	38
69.071	39
69.1321	33
69.7171	229
73.4461	30
81.0707	186
83.0862	40
89.0638	33
91.0545	42
93.0701	41
95.0857	229
100.2114	30
100.3094	30
105.0702	242
107.0864	63
109.102	63
117.0698	37
119.0861	68
121.102	31
131.0855	264
133.0645	64
133.1009	133
133.5126	30
137.0598	63
145.1009	348
147.1178	211
151.0755	239
155.0861	35
159.0799	137
159.1178	454
160.1241	30
161.1324	346
163.0758	45
169.1022	48
173.0969	172
177.0922	242
187.1479	999
189.165	34
197.1317	231
215.1431	568
233.1529	687
