Mass spectrum: Hesperidin; LC-ESI-QTOF; MS2; CE: 32.18;  [M-H]-
Name: Hesperidin
Class: NA
Formula: C28H34O15
Exact mass: 610.1898
SMILES: CC1C(C(C(C(O1)OCC2C(C(C(C(O2)OC3=CC(=C4C(=O)CC(OC4=C3)C5=CC(=C(C=C5)OC)O)O)O)O)O)O)O)O
InChI: InChI=1S/C28H34O15/c1-10-21(32)23(34)25(36)27(40-10)39-9-19-22(33)24(35)26(37)28(43-19)41-12-6-14(30)20-15(31)8-17(42-18(20)7-12)11-3-4-16(38-2)13(29)5-11/h3-7,10,17,19,21-30,32-37H,8-9H2,1-2H3
Instrument: Bruker MicrOTOF-Q
Instrument type: LC-ESI-QTOF
Ms type: MS2
Ion mode: NEGATIVE
Ionization: ESI
Collision energy: 32.18
Column name: Acquity CSHC18
Retention time: NA
Base peak: 609.1825
Precursor m/z: 609.1825
Precursor type: [M-H]-
m/z	relative intensity
125.0273	187
126.0281	14
134.0336	22
135.0455	8
136.0354	8
145.1651	7
149.0606	36
151.0044	158
152.0081	25
158.0341	20
160.016	10
161.0278	11
164.0127	169
165.015	20
166.6541	7
173.0632	43
174.0327	64
175.033	29
176.0427	8
177.0227	19
177.512	7
185.0239	36
187.0368	16
188.0481	21
189.0529	19
191.0722	34
193.0169	11
196.0085	14
196.8909	7
197.549	8
198.0337	48
199.0394	349
200.0445	134
200.9638	181
202.0259	106
205.0211	7
206.0229	19
211.0139	10
213.0556	29
214.0633	105
215.0442	194
216.0428	111
217.0504	188
218.0548	48
218.5696	7
219.0412	10
224.0475	75
224.4534	7
225.0527	32
226.0615	10
226.951	76
228.0374	25
229.0372	13
230.0605	57
231.0614	9
233.0826	161
234.0866	23
238.0638	19
239.0686	73
240.044	175
241.0495	262
242.117	495
242.9824	101
244.0584	35
245.0539	13
254.0634	13
257.2759	166
259.0596	160
260.0564	26
265.0567	9
266.0567	20
267.0319	17
268.0373	169
269.0418	29
271.0595	19
277.3199	7
279.0653	10
282.0563	56
283.0622	531
284.055	116
284.6047	9
285.169	57
286.3954	315
288.0557	78
289.0518	12
292.0357	23
296.0703	7
297.0793	49
298.0839	18
301.7551	999
304.731	8
305.6314	8
307.0612	31
308.0648	8
310.0473	144
311.0554	22
312.0568	13
315.0886	106
316.0894	23
325.0722	529
326.0757	113
327.0659	27
328.056	103
329.0609	17
337.08	7
339.0879	8
343.0826	378
344.0876	83
345.0901	14
355.083	26
367.0848	25
