Mass spectrum: lactucopicrin; LC-ESI-ITFT; MS2; CE: 0.3;  [M-H]-
Name: lactucopicrin
Class: sesquiterpene lactones
Formula: C23H22O7
Exact mass: 410.1366
SMILES: CC1=C2C(C3C(C(C1)OC(=O)CC4=CC=C(C=C4)O)C(=C)C(=O)O3)C(=CC2=O)CO
InChI: InChI=1S/C23H22O7/c1-11-7-17(29-18(27)8-13-3-5-15(25)6-4-13)20-12(2)23(28)30-22(20)21-14(10-24)9-16(26)19(11)21/h3-6,9,17,20-22,24-25H,2,7-8,10H2,1H3
Instrument: LTQ-Orbitrap XL hybrid mass spectrometer (Thermo Scientific)
Instrument type: LC-ESI-ITFT
Ms type: MS2
Ion mode: NEGATIVE
Ionization: ESI
Collision energy: 0.3
Column name: Acquity CSHC18
Retention time: 9.456 min
Base peak: 409.1290
Precursor m/z: 409.1290
Precursor type: [M-H]-
Precursor intensity: 20597910
m/z	relative intensity
103.142	2
127.848	1
147.4238	1
151.0404	32
161.061	2
161.1599	4
167.7519	2
169.1025	2
175.4412	1
183.0817	8
185.0973	9
194.5055	1
195.0816	13
196.0849	2
196.1438	5
198.0688	5
211.0765	6
213.0921	252
214.0954	39
215.1081	1
227.0712	8
229.0864	2
239.0713	19
240.0744	3
242.0584	4
242.2432	1
253.5325	2
255.2976	4
255.8904	4
255.9072	2
256.1274	2
257.0419	2
257.0513	3
257.0652	5
257.0818	999
257.1009	5
257.1136	3
257.1302	3
258.085	148
258.2823	3
275.0922	43
276.0952	4
286.5066	6
321.1486	2
323.7982	2
335.8224	2
365.1388	4
391.1182	4
409.1225	1
