Mass spectrum: Phe-Phe; ESI-TOF; MS2; CE: 6.0000000;  [M+H]+
Name: Phe-Phe
Class: NA
Formula: C18H20N2O3
Exact mass: 312.14739
SMILES: C1=CC=C(C=C1)CC(C(=O)NC(CC2=CC=CC=C2)C(=O)O)N
InChI: InChI=1S/C18H20N2O3/c19-15(11-13-7-3-1-4-8-13)17(21)20-16(18(22)23)12-14-9-5-2-6-10-14/h1-10,15-16H,11-12,19H2,(H,20,21)(H,22,23)
Instrument: waters xevo g2 TOF
Instrument type: ESI-TOF
Ms type: MS2
Ion mode: POSITIVE
Ionization: ESI
Collision energy: 6.0000000
Column name: Acquity CSHC18
Retention time: 2.022 min
Base peak: 313.15539
Precursor m/z: 313.15539
Precursor type: [M+H]+
m/z	relative intensity
120.0815	225
121.0846	22
166.0868	76
167.0902	8
267.1499	29
268.1507	6
295.1439	3
296.1305	6
313.1556	999
314.1577	230
315.1611	31
316.1641	2
322.0765	1
335.1369	26
336.1398	5
351.1044	2
412.079	1
625.3022	8
626.3066	3
647.2828	6
648.2834	2
