Mass spectrum: Theobromine; LC-ESI-ITFT; MS2; CE: 60;  [M+H]+
Name: Theobromine
Class: Organoheterocyclic compounds; Imidazopyrimidines; Purines and purine derivatives
Formula: C7H8N4O2
Exact mass: 180.06473
SMILES: CN1C=NC2=C1C(=O)NC(=O)N2C
InChI: InChI=1S/C7H8N4O2/c1-10-3-8-5-4(10)6(12)9-7(13)11(5)2/h3H,1-2H3,(H,9,12,13)
Instrument: Thermo Scientific Q-Exactive Focus
Instrument type: LC-ESI-ITFT
Ms type: MS2
Ion mode: POSITIVE
Ionization: ESI
Collision energy: 60
Column name: Acquity CSHC18
Retention time: 2.014 min
Base peak: 181.07201
Precursor m/z: 181.07201
Precursor type: [M+H]+
m/z	relative intensity
52.0188	48
56.05	58
66.0218	133
67.0296	999
68.0374	158
69.0452	172
110.1988	27
120.7543	28
131.5871	26
136.9584	30
