Mass spectrum: liquiritigenin; LC-ESI-ITFT; MS2; CE: 0.3;  [M-H]-
Name: liquiritigenin
Class: flavanones
Formula: C15H12O4
Exact mass: 256.0736
SMILES: C1C(OC2=C(C1=O)C=CC(=C2)O)C3=CC=C(C=C3)O
InChI: InChI=1S/C15H12O4/c16-10-3-1-9(2-4-10)14-8-13(18)12-6-5-11(17)7-15(12)19-14/h1-7,14,16-17H,8H2
Instrument: LTQ-Orbitrap XL hybrid mass spectrometer (Thermo Scientific)
Instrument type: LC-ESI-ITFT
Ms type: MS2
Ion mode: NEGATIVE
Ionization: ESI
Collision energy: 0.3
Column name: Acquity CSHC18
Retention time: 9.436 min
Base peak: 255.0664
Precursor m/z: 255.0664
Precursor type: [M-H]-
Precursor intensity: 3882424
m/z	relative intensity
61.785	4
62.9469	3
63.6065	3
66.4576	3
71.7765	4
81.051	7
84.122	5
85.3791	5
91.0197	31
92.365	3
98.5716	4
109.0465	4
119.0508	108
135.0093	999
135.0258	4
135.0295	4
137.9593	3
145.0289	7
149.0248	16
149.8023	4
167.1149	24
186.0568	3
197.7313	8
213.0572	8
231.8465	4
255.0662	10
