Mass spectrum: PEP; LC-ESI-QTOF; MS2; CE: 10;  [M-H]-
Name: PEP
Class: NA
Formula: C3H5O6P
Exact mass: 167.9824
SMILES: C=C(C(=O)O)OP(=O)(O)O
InChI: InChI=1S/C3H5O6P/c1-2(3(4)5)9-10(6,7)8/h1H2,(H,4,5)(H2,6,7,8)
Instrument: impact II
Instrument type: LC-ESI-QTOF
Ms type: MS2
Ion mode: NEGATIVE
Ionization: ESI
Collision energy: 10
Column name: Acquity CSHC18
Retention time: 1.911 min
Base peak: 166.9750
Precursor m/z: 166.9750
Precursor type: [M-H]-
m/z	relative intensity
78.9595	999
78.9701	43
78.9992	3
79.0137	2
79.0242	2
79.0308	3
79.9638	2
96.9697	4
148.9643	14
166.9748	13
