Mass spectrum: Ginkgolide C; LC-ESI-QFT; MS2; CE: 15,30,45 (NCE);  [M+K]+
Name: Ginkgolide C
Class: NA
Formula: C20H24O11
Exact mass: 440.1319
SMILES: CC1C(=O)OC2C(O)C34C5OC(=O)C3(OC3OC(=O)C(O)C43C(C5O)C(C)(C)C)C12O
InChI: InChI=1S/C20H24O11/c1-5-12(24)28-11-8(22)18-10-6(21)7(16(2,3)4)17(18)9(23)13(25)30-15(17)31-20(18,14(26)29-10)19(5,11)27/h5-11,15,21-23,27H,1-4H3
Instrument: QE Focus, Thermo Scientfic; UPLC I-Class, Waters
Instrument type: LC-ESI-QFT
Ms type: MS2
Ion mode: POSITIVE
Ionization: ESI
Collision energy: 15,30,45 (NCE)
Column name: Acquity CSHC18
Retention time: 1.560 min
Base peak: 479.0959
Precursor m/z: 479.0959
Precursor type: [M+K]+
Precursor intensity: 1782380
m/z	relative intensity
50.093	23
54.4952	20
382.3325	55
382.3736	85
479.0961	999
