Mass spectrum: 8-iso-17-phenyl trinor Prostaglandin F2-alpha; ESI-TOF; MS2; CE: 0.6458333;  [M+H]+
Name: 8-iso-17-phenyl trinor Prostaglandin F2-alpha
Class: NA
Formula: C23H32O5
Exact mass: 388.22497
SMILES: O[C@@H]1[C@@H](C/C=C\CCCC(O)=O)[C@@H](/C=C/[C@@H](O)CCC2=CC=CC=C2)[C@H](O)C1
InChI: InChI=1S/C23H32O5/c24-18(13-12-17-8-4-3-5-9-17)14-15-20-19(21(25)16-22(20)26)10-6-1-2-7-11-23(27)28/h1,3-6,8-9,14-15,18-22,24-26H,2,7,10-13,16H2,(H,27,28)/b6-1-,15-14+/t18-,19-,20+,21-,22+/m0/s1
Instrument: waters xevo g2 TOF
Instrument type: ESI-TOF
Ms type: MS2
Ion mode: POSITIVE
Ionization: ESI
Collision energy: 0.6458333
Column name: Acquity CSHC18
Retention time: 3.282 min
Base peak: 389.23297
Precursor m/z: 389.23297
Precursor type: [M+H]+
m/z	relative intensity
93.0713	98
115.0551	88
117.0708	836
119.0865	95
128.0646	111
129.0703	341
130.0742	44
131.0865	999
132.0897	8
133.1014	85
141.0721	254
143.0859	346
145.101	177
147.0811	63
155.0882	80
157.1044	232
165.0683	67
166.0764	79
167.0849	137
169.102	273
171.1178	199
179.0972	140
181.1018	227
183.1168	75
185.1334	74
187.0941	8
191.095	56
193.1111	138
195.1146	112
196.0826	8
196.5842	8
203.1439	8
205.1046	8
205.5901	8
207.128	304
208.1234	55
213.1316	20
219.1353	8
221.1325	78
233.1311	88
241.1456	8
245.1168	8
251.1418	8
254.0429	60
271.1483	52
273.1653	46
275.1786	70
289.16	8
291.1756	8
299.1789	176
301.1117	8
317.1906	239
318.1873	16
333.1812	8
335.2012	511
336.2017	89
337.2144	8
338.2173	8
351.1967	8
352.1115	8
353.2111	8
354.2134	8
355.1699	39
365.1404	318
367.2257	8
368.232	8
371.2226	8
380.1143	64
381.115	572
382.1142	67
389.1145	46
391.1596	119
