Mass spectrum: D-Glucuronic acid; ESI-TOF; MS2; CE: 6.0000000;  [M+H]+
Name: D-Glucuronic acid
Class: NA
Formula: C6H10O7
Exact mass: 194.04265
SMILES: OC1OC(C(O)C(O)C1O)C(O)=O
InChI: InChI=1S/C6H10O7/c7-1-2(8)4(5(10)11)13-6(12)3(1)9/h1-4,6-9,12H,(H,10,11)
Instrument: waters xevo g2 TOF
Instrument type: ESI-TOF
Ms type: MS2
Ion mode: POSITIVE
Ionization: ESI
Collision energy: 6.0000000
Column name: Acquity CSHC18
Retention time: 0.566 min
Base peak: 195.05065
Precursor m/z: 195.05065
Precursor type: [M+H]+
m/z	relative intensity
97.9677	2
100.9556	2
113.9407	2
113.9644	999
151.9565	2
154.967	146
155.9738	125
159.968	26
160.9888	2
174.9693	2
176.9711	2
184.9858	473
197.96	2
213.9555	86
217.0327	199
220.0044	38
247.9621	304
253.9492	2
257.9468	36
258.1717	74
307.9822	549
308.9896	171
382.9931	84
442.0049	86
