Mass spectrum: DIAMINOPIMELATE; LC-ESI-QTOF; MS2; CE: 20;  [M+H]+
Name: DIAMINOPIMELATE
Class: NA
Formula: C7H14N2O4
Exact mass: 190.0954
SMILES: N[C@@H](CCC[C@H](N)C(O)=O)C(O)=O
InChI: InChI=1S/C7H14N2O4/c8-4(6(10)11)2-1-3-5(9)7(12)13/h4-5H,1-3,8-9H2,(H,10,11)(H,12,13)/t4-,5-/m0/s1
Instrument: Agilent 6530Â Q-TOF LC/MS
Instrument type: LC-ESI-QTOF
Ms type: MS2
Ion mode: POSITIVE
Ionization: ESI
Collision energy: 20
Column name: NA
Retention time: 0.200 min
Base peak: 191.10247
Precursor m/z: 191.10247
Precursor type: [M+H]+
Precursor intensity: 64.5
m/z	relative intensity
55.0525	163
56.0492	240
82.0638	274
84.0795	374
84.959	381
128.0694	586
128.9446	999
172.9305	163
