Mass spectrum: 2-Deoxy-D-Ribose; ESI-TOF; MS2; CE: 6.0000000;  [M+H]+
Name: 2-Deoxy-D-Ribose
Class: NA
Formula: C5H10O4
Exact mass: 134.05791
SMILES: OC[C@@H]1O[C@H](O)C[C@H]1O
InChI: InChI=1S/C5H10O4/c6-2-4-3(7)1-5(8)9-4/h3-8H,1-2H2/t3-,4+,5+/m1/s1
Instrument: waters xevo g2 TOF
Instrument type: ESI-TOF
Ms type: MS2
Ion mode: POSITIVE
Ionization: ESI
Collision energy: 6.0000000
Column name: Acquity CSHC18
Retention time: 0.545 min
Base peak: 135.06591
Precursor m/z: 135.06591
Precursor type: [M+H]+
m/z	relative intensity
81.0348	33
96.9621	185
97.9701	85
98.9769	27
99.0454	85
113.9412	3
117.0562	68
124.9918	30
139.9578	3
145.0347	147
154.0403	209
157.0484	999
157.9673	89
187.9784	226
189.0748	69
219.019	171
229.9879	143
247.9992	377
273.0964	295
274.015	95
