Mass spectrum: THREITOL; LC-ESI-QTOF; MS2; CE: 10;  [M-H]-
Name: THREITOL
Class: NA
Formula: C4H10O4
Exact mass: 122.05791
SMILES: OC[C@@H](O)[C@H](O)CO
InChI: InChI=1S/C4H10O4/c5-1-3(7)4(8)2-6/h3-8H,1-2H2/t3-,4-/m1/s1
Instrument: Agilent 6530Â Q-TOF LC/MS
Instrument type: LC-ESI-QTOF
Ms type: MS2
Ion mode: NEGATIVE
Ionization: ESI
Collision energy: 10
Column name: NA
Retention time: 0.200 min
Base peak: 121.05090
Precursor m/z: 121.05090
Precursor type: [M-H]-
Precursor intensity: 187
m/z	relative intensity
41.0027	156
43.0209	165
44.0215	200
44.5118	209
44.999	295
59.0264	343
71.0252	475
77.0411	608
89.0311	870
121.0571	999
