Mass spectrum: Luteolin 4'-glucoside; LC-ESI-QTOF; MS2; CE: 50eV;  [M+H]+
Name: Luteolin 4'-glucoside
Class: Flavone
Formula: C21H20O11
Exact mass: 448.1006
SMILES: C1=CC(=C(C=C1C2=CC(=O)C3=C(C=C(C=C3O2)O)O)O)OC4C(C(C(C(O4)CO)O)O)O
InChI: InChI=1S/C21H20O11/c22-7-16-18(27)19(28)20(29)21(32-16)31-13-2-1-8(3-10(13)24)14-6-12(26)17-11(25)4-9(23)5-15(17)30-14/h1-6,16,18-25,27-29H,7H2
Instrument: TIMS-TOF Pro, Bruker Daltonik; Elute UHPLC System, Bruker Daltonik
Instrument type: LC-ESI-QTOF
Ms type: MS2
Ion mode: POSITIVE
Ionization: ESI
Collision energy: 50eV
Column name: Acquity CSHC18
Retention time: 5.627 min
Base peak: 449.1039
Precursor m/z: 449.1039
Precursor type: [M+H]+
Precursor intensity: 355922.2
m/z	relative intensity
68.9978	1
135.0415	1
152.9995	1
153.0152	4
158.2322	1
164.9095	2
180.04	1
217.0485	1
241.0524	1
265.3915	1
286.6089	1
286.9044	3
287.0092	11
287.0496	999
287.3265	1
287.5336	7
288.0531	26
288.9235	1
289.0611	7
290.0465	1
449.1072	65
