Mass spectrum: Isoboldine; ESI-QTOF; MS2; CE: 1, 35, 60;  [M+H]+
Name: Isoboldine
Class: Benzylisoquinoline (subclass: Aporphine) alkaloid
Formula: C19H21NO4
Exact mass: 327.1471
SMILES: CN1CCC2=CC(=C(C3=C2C1CC4=CC(=C(C=C43)OC)O)O)OC
InChI: InChI=1S/C19H21NO4/c1-20-5-4-10-8-16(24-3)19(22)18-12-9-15(23-2)14(21)7-11(12)6-13(20)17(10)18/h7-9,13,21-22H,4-6H2,1-3H3
Instrument: AB Sciex TripleToF 5500
Instrument type: ESI-QTOF
Ms type: MS2
Ion mode: POSITIVE
Ionization: ESI
Collision energy: 1, 35, 60
Column name: Acquity CSHC18
Retention time: 4.584 min
Base peak: 328.1513
Precursor m/z: 328.1513
Precursor type: [M+H]+
Precursor intensity: 2658165
m/z	relative intensity
115.0489	134
167.0657	147
179.0674	149
180.0812	177
181.0822	309
196.0634	312
207.0581	322
209.0762	363
212.061	382
224.0672	508
267.0808	584
296.1515	999
