Mass spectrum: Quercetin 3-rhamnoside; LC-ESI-QTOF; MS2; CE: 50eV;  [M-H]-
Name: Quercetin 3-rhamnoside
Class: Flavonol
Formula: C21H20O11
Exact mass: 448.1006
SMILES: CC1C(C(C(C(O1)OC2=C(OC3=CC(=CC(=C3C2=O)O)O)C4=CC(=C(C=C4)O)O)O)O)O
InChI: InChI=1S/C21H20O11/c1-7-15(26)17(28)18(29)21(30-7)32-20-16(27)14-12(25)5-9(22)6-13(14)31-19(20)8-2-3-10(23)11(24)4-8/h2-7,15,17-18,21-26,28-29H,1H3
Instrument: TIMS-TOF Pro, Bruker Daltonik; Elute UHPLC System, Bruker Daltonik
Instrument type: LC-ESI-QTOF
Ms type: MS2
Ion mode: NEGATIVE
Ionization: ESI
Collision energy: 50eV
Column name: Acquity CSHC18
Retention time: 5.572 min
Base peak: 447.0834
Precursor m/z: 447.0834
Precursor type: [M-H]-
Precursor intensity: 397031.1
m/z	relative intensity
57.112	1
63.0224	1
65.0029	4
84.3554	1
91.0175	2
91.954	1
96.0214	1
107.0124	14
108.0211	11
109.028	14
110.1404	1
112.5145	1
121.0288	10
125.0213	1
135.0046	7
136.0122	2
140.594	1
147.0052	2
148.0144	5
148.7635	2
149.0213	4
150.3001	1
151.0007	29
151.2798	1
151.532	1
152.0041	5
152.4028	1
153.0224	2
155.3818	1
159.0431	2
161.3841	1
163.0026	12
164.0066	3
164.8801	1
166.4163	1
167.1738	1
173.0572	1
176.0382	1
178.9981	12
180.0016	1
189.0502	1
190.027	1
191.9991	1
193.8343	1
198.0299	1
199.0385	3
201.0545	2
203.0469	1
205.047	1
211.0348	2
212.1541	1
214.2699	2
214.9097	1
215.3722	1
215.9326	2
217.9204	1
219.2725	1
221.0107	1
223.1136	1
224.3707	1
226.027	1
227.9797	1
229.279	1
232.6962	2
234.8176	1
237.8597	1
243.0257	8
244.0296	2
245.0417	2
245.4331	1
251.3673	1
254.014	2
255.0277	8
256.046	1
257.7747	1
260.5414	1
271.0208	20
272.0237	2
275.2971	3
283.0184	1
285.5652	1
289.2916	1
294.856	1
299.0129	1
300.0198	126
300.2902	1
300.528	1
300.7413	1
301.0312	300
301.1734	1
301.3203	1
301.4608	1
301.5484	1
301.8004	1
301.9291	1
302.0333	30
302.598	1
303.0398	2
303.4022	1
316.027	1
344.0405	1
351.4469	1
446.6568	1
446.7701	1
446.8551	1
447.0234	1
447.0868	999
447.2635	1
447.4069	2
447.5386	3
