Mass spectrum: trihydroxycholestanoic acid; ESI-TOF; MS2; CE: 6.0000000;  [M+H]+
Name: trihydroxycholestanoic acid
Class: NA
Formula: C27H46O5
Exact mass: 450.33452
SMILES: [H]OC(=O)C([H])(C([H])([H])[H])C([H])([H])C([H])([H])C([H])([H])C([H])(C([H])([H])[H])C2([H])(C([H])([H])C([H])([H])C3([H])(C4([H])(C([H])(O[H])C([H])([H])C1([H])(C([H])([H])C([H])(O[H])C([H])([H])C([H])([H])C1(C([H])([H])[H])C4([H])(C([H])([H])C([H])(O[H])C23(C([H])([H])[H]))))))
InChI: InChI=1S/C27H46O5/c1-15(6-5-7-16(2)25(31)32)19-8-9-20-24-21(14-23(30)27(19,20)4)26(3)11-10-18(28)12-17(26)13-22(24)29/h15-24,28-30H,5-14H2,1-4H3,(H,31,32)
Instrument: waters xevo g2 TOF
Instrument type: ESI-TOF
Ms type: MS2
Ion mode: POSITIVE
Ionization: ESI
Collision energy: 6.0000000
Column name: Acquity CSHC18
Retention time: 7.282 min
Base peak: 451.34252
Precursor m/z: 451.34252
Precursor type: [M+H]+
m/z	relative intensity
218.1334	30
227.1386	72
227.6405	22
236.144	234
236.6452	47
237.1472	10
243.1518	39
245.1493	149
245.6509	39
246.1527	9
247.6501	16
248.1528	5
252.1569	102
252.659	19
253.196	6
255.2114	8
256.6565	56
257.1595	13
261.1637	5
355.2624	6
379.2999	51
380.3015	8
397.3107	999
398.3139	282
399.3166	44
415.3213	702
416.3245	225
417.328	36
433.3322	10
434.3339	4
