Mass spectrum: N-ACETYLLEUCINE; LC-ESI-QTOF; MS2; CE: 20;  [M+H]+
Name: N-ACETYLLEUCINE
Class: NA
Formula: C8H15NO3
Exact mass: 173.10519
SMILES: CC(C)C[C@H](NC(C)=O)C(O)=O
InChI: InChI=1S/C8H15NO3/c1-5(2)4-7(8(11)12)9-6(3)10/h5,7H,4H2,1-3H3,(H,9,10)(H,11,12)/t7-/m0/s1
Instrument: Agilent 6530Â Q-TOF LC/MS
Instrument type: LC-ESI-QTOF
Ms type: MS2
Ion mode: POSITIVE
Ionization: ESI
Collision energy: 20
Column name: NA
Retention time: 0.200 min
Base peak: 174.11172
Precursor m/z: 174.11172
Precursor type: [M+H]+
Precursor intensity: 23.5
m/z	relative intensity
41.0486	34
43.0611	34
43.189	35
43.8506	37
44.0729	37
44.2424	38
45.0562	41
60.4162	55
69.0788	64
86.4287	104
86.9433	196
87.0956	214
87.5535	910
128.1079	979
132.125	999
