Mass spectrum: Phytosphingosine; LC-ESI-QTOF; MS2; CE: 20-40eV;  [M+H]+
Name: Phytosphingosine
Class: Sphingolipid
Formula: C18H39NO3
Exact mass: 317.2930
SMILES: CCCCCCCCCCCCCCC(C(C(CO)(N)[H])(O)[H])(O)[H]
InChI: InChI=1S/C18H39NO3/c1-2-3-4-5-6-7-8-9-10-11-12-13-14-17(21)18(22)16(19)15-20/h16-18,20-22H,2-15,19H2,1H3
Instrument: Impact II, Bruker; Dionex 3000, Thermo Scientific
Instrument type: LC-ESI-QTOF
Ms type: MS2
Ion mode: POSITIVE
Ionization: ESI
Collision energy: 20-40eV
Column name: Acquity CSHC18
Retention time: 16.314 min
Base peak: 318.2989
Precursor m/z: 318.2989
Precursor type: [M+H]+
Precursor intensity: 38144.13
m/z	relative intensity
95.0848	30
97.0624	68
97.1007	26
99.1149	34
101.0579	27
121.1022	49
135.1173	30
235.2422	46
238.2542	39
240.2664	38
252.2671	77
254.2816	31
264.2674	69
265.2536	106
270.2796	138
282.2778	972
283.2802	207
284.284	47
300.289	999
301.2918	185
318.3	913
