Mass spectrum: Xanthine; LC-ESI-ITFT; MS2; CE: 20;  [M-H]-
Name: Xanthine
Class: Organoheterocyclic compounds; Imidazopyrimidines; Purines and purine derivatives
Formula: C5H4N4O2
Exact mass: 152.03343
SMILES: O=C1NC2=C(NC=N2)C(=O)N1
InChI: InChI=1S/C5H4N4O2/c10-4-2-3(7-1-6-2)8-5(11)9-4/h1H,(H3,6,7,8,9,10,11)
Instrument: Thermo Scientific Q-Exactive Focus
Instrument type: LC-ESI-ITFT
Ms type: MS2
Ion mode: NEGATIVE
Ionization: ESI
Collision energy: 20
Column name: Acquity CSHC18
Retention time: 0.644 min
Base peak: 151.02615
Precursor m/z: 151.02615
Precursor type: [M-H]-
m/z	relative intensity
59.4397	3
65.9973	18
88.7214	3
92.5136	4
102.907	3
108.0191	999
126.0297	73
133.0145	9
133.9171	3
151.0251	307
