Mass spectrum: 3-SULFINOALANINE; LC-ESI-QTOF; MS2; CE: 20;  [M+H]+
Name: 3-SULFINOALANINE
Class: NA
Formula: C3H7NO4S
Exact mass: 153.0096
SMILES: N[C@@H](CS(=O)=O)C(O)=O
InChI: InChI=1S/C3H7NO4S/c4-2(3(5)6)1-9(7)8/h2,9H,1,4H2,(H,5,6)/t2-/m0/s1
Instrument: Agilent 6530Â Q-TOF LC/MS
Instrument type: LC-ESI-QTOF
Ms type: MS2
Ion mode: POSITIVE
Ionization: ESI
Collision energy: 20
Retention time: 0.200 min
Base peak: 154.01663
Precursor m/z: 154.01663
Precursor type: [M+H]+
m/z	relative intensity
42.0413	369
42.6018	15
43.0424	636
43.879	27
44.0529	877
44.3273	49
44.507	20
45.4006	10
46.0273	274
49.7331	34
52.3895	10
55.0208	334
67.333	14
67.6983	17
68.9352	52
70.2723	14
71.619	21
73.0297	332
73.3406	16
73.5342	17
73.8214	10
74.029	999
74.2894	20
75.1944	20
85.4499	23
88.0337	104
89.0808	99
90.2905	19
98.0966	107
98.3845	27
108.075	30
112.7115	12
113.9433	39
120.6001	13
126.0481	118
127.2639	18
129.6338	22
130.8422	20
132.2878	21
134.807	117
136.0258	92
148.646	26
