Mass spectrum: Agmatine; ESI-TOF; MS2; CE: 6.0000000;  [M+H]+
Name: Agmatine
Class: NA
Formula: C5H14N4
Exact mass: 130.12185
SMILES: NCCCCNC(N)=N
InChI: InChI=1S/C5H14N4/c6-3-1-2-4-9-5(7)8/h1-4,6H2,(H4,7,8,9)
Instrument: waters xevo g2 TOF
Instrument type: ESI-TOF
Ms type: MS2
Ion mode: POSITIVE
Ionization: ESI
Collision energy: 6.0000000
Column name: Acquity CSHC18
Retention time: 0.456 min
Base peak: 131.12985
Precursor m/z: 131.12985
Precursor type: [M+H]+
m/z	relative intensity
60.0566	3
72.0816	14
97.0194	11
114.1032	999
115.1057	78
116.1089	2
131.1297	805
132.1321	65
133.1332	1
137.988	27
153.1113	6
163.9777	1
184.0416	1
185.06	5
202.2029	6
203.1337	1
215.082	3
231.0421	13
232.0562	1
244.224	1
298.0353	1
299.0423	1
312.1703	1
313.1759	2
314.1638	28
315.1702	43
316.1719	7
317.1716	1
318.1734	2
319.1679	5
334.1713	1
345.2042	2
356.1739	1
360.1723	1
361.1772	13
362.1778	2
386.0985	2
415.0965	1
