Mass spectrum: Ergocalciferol; APCI-ITFT; MS2; CE: HCD 90;  [M-H]-
Name: Ergocalciferol
Class: NA
Formula: C28H44O
Exact mass: 396.33922
SMILES: CC(C)C(C)C=CC(C)C1CCC2C1(CCCC2=CC=C3CC(CCC3=C)O)C
InChI: InChI=1S/C28H44O/c1-19(2)20(3)9-10-22(5)26-15-16-27-23(8-7-17-28(26,27)6)12-13-24-18-25(29)14-11-21(24)4/h9-10,12-13,19-20,22,25-27,29H,4,7-8,11,14-18H2,1-3,5-6H3
Instrument: Orbitrap Elite
Instrument type: APCI-ITFT
Ms type: MS2
Ion mode: NEGATIVE
Ionization: APCI
Collision energy: HCD 90
Column name: Acquity CSHC18
Retention time: 0.444 min
Base peak: 395.33170
Precursor m/z: 395.33170
Precursor type: [M-H]-
Precursor intensity: 249301.5
m/z	relative intensity
339.3042	725
377.3223	422
394.3196	221
395.2591	408
395.2927	254
395.3303	999
