Mass spectrum: GUANOSINE MONOPHOSPHATE; LC-ESI-QFT; MS2; CE: 30eV;  [M+H]+
Name: GUANOSINE MONOPHOSPHATE
Class: NA
Formula: C10H14N5O8P
Exact mass: 363.05800
SMILES: NC1=NC2=C(N=CN2[C@@H]2O[C@H](COP(O)(O)=O)[C@@H](O)[C@H]2O)C(=O)N1
InChI: InChI=1S/C10H14N5O8P/c11-10-13-7-4(8(18)14-10)12-2-15(7)9-6(17)5(16)3(23-9)1-22-24(19,20)21/h2-3,5-6,9,16-17H,1H2,(H2,19,20,21)(H3,11,13,14,18)/t3-,5-,6-,9-/m1/s1
Instrument: Q-Exactive Orbitrap, Thermo Scientfic; Ultimate 3000 HPLC, Thermo Scientfic
Instrument type: LC-ESI-QFT
Ms type: MS2
Ion mode: POSITIVE
Ionization: ESI
Collision energy: 30eV
Column name: Acquity CSHC18
Retention time: 0.744 min
Base peak: 364.0653
Precursor m/z: 364.0653
Precursor type: [M+H]+
Precursor intensity: 120
m/z	relative intensity
93.248	1
93.4189	1
97.0291	53
116.3276	1
116.4862	1
124.6212	1
135.0305	1
150.2735	1
152.0572	999
153.0411	5
153.0542	10
153.0606	25
187.8701	1
198.562	1
212.4275	1
249.3281	1
309.8161	1
336.8032	2
366.0822	1
