Mass spectrum: (+)-Cloprostenol (sodium salt); ESI-TOF; MS2; CE: 6.0000000;  [M+H]+
Name: (+)-Cloprostenol (sodium salt)
Class: NA
Formula: C22H28ClNaO6
Exact mass: 446.14721
SMILES: O[C@@H]1[C@H](C/C=C\CCCC([O-])=O)[C@@H](/C=C/[C@@H](O)COC2=CC=CC(Cl)=C2)[C@H](O)C1.[Na+]
InChI: InChI=1S/C22H29ClO6.Na/c23-15-6-5-7-17(12-15)29-14-16(24)10-11-19-18(20(25)13-21(19)26)8-3-1-2-4-9-22(27)28;/h1,3,5-7,10-12,16,18-21,24-26H,2,4,8-9,13-14H2,(H,27,28);/q;+1/p-1/b3-1-,11-10+;/t16-,18-,19-,20+,21-;/m1./s1
Instrument: waters xevo g2 TOF
Instrument type: ESI-TOF
Ms type: MS2
Ion mode: POSITIVE
Ionization: ESI
Collision energy: 6.0000000
Column name: Acquity CSHC18
Retention time: 3.583 min
Base peak: 447.15521
Precursor m/z: 447.15521
Precursor type: [M+H]+
m/z	relative intensity
105.0708	4
117.0708	6
119.0866	11
131.0871	11
133.0636	5
135.0816	4
143.0862	12
147.1178	13
157.1028	5
159.0808	14
161.096	28
171.1183	14
172.1197	2
173.0964	4
179.1057	6
184.1244	3
189.1276	52
190.1301	4
197.1323	29
199.1114	22
205.1247	6
207.1373	71
208.1394	5
214.0518	12
216.1483	2
217.122	41
218.1242	4
219.1425	5
223.0586	49
223.5589	6
225.1281	88
233.1543	19
243.1386	241
244.1424	30
261.1477	168
262.1525	22
263.1582	4
275.1618	8
279.1594	405
280.1631	62
281.1612	8
293.1771	11
339.2448	6
345.118	2
350.9906	2
353.1269	8
371.1413	47
372.1403	5
373.1436	9
388.0528	4
389.151	31
390.1471	3
406.0638	12
407.167	8
431.1792	7
444.153	7
444.6535	4
447.1555	999
448.1586	243
