Mass spectrum: peonidin; LC-ESI-ITFT; MS2; CE: 0.3;  [M]+
Name: peonidin
Class: anthocyanidins
Formula: [C16H13O6]+
Exact mass: 301.0707
SMILES: COC1=C(C=CC(=C1)C2=[O+]C3=CC(=CC(=C3C=C2O)O)O)O
InChI: InChI=1S/C16H12O6/c1-21-15-4-8(2-3-11(15)18)16-13(20)7-10-12(19)5-9(17)6-14(10)22-16/h2-7H,1H3,(H3-,17,18,19,20)/p+1
Instrument: LTQ-Orbitrap XL hybrid mass spectrometer (Thermo Scientific)
Instrument type: LC-ESI-ITFT
Ms type: MS2
Ion mode: POSITIVE
Ionization: ESI
Collision energy: 0.3
Column name: Acquity CSHC18
Retention time: 6.801 min
Base peak: 301.0717
Precursor m/z: 301.0717
Precursor type: [M]+
Precursor intensity: 88637780
m/z	relative intensity
71.837	5
71.8374	4
71.8392	5
77.135	3
77.4003	3
77.6117	3
82.6468	3
87.7706	2
90.2847	2
91.4003	3
92.984	3
94.6722	3
101.8169	3
101.8949	3
104.249	2
107.8137	3
108.4359	3
110.6003	3
127.9886	3
194.5267	2
196.1902	9
230.0583	6
245.0824	3
258.0537	23
268.0381	7
273.0775	4
283.9552	4
286.0216	5
286.0249	6
286.0325	6
286.036	4
286.0488	999
286.0576	4
287.0521	32
287.3501	11
287.3614	9
287.3663	5
288.1661	5
301.0724	63
