Mass spectrum: L-Dihydroorotic acid; ESI-TOF; MS2; CE: 6.0000000;  [M+H]+
Name: L-Dihydroorotic acid
Class: NA
Formula: C5H6N2O4
Exact mass: 158.03276
SMILES: OC(=O)C1CC(=O)NC(=O)N1
InChI: InChI=1S/C5H6N2O4/c8-3-1-2(4(9)10)6-5(11)7-3/h2H,1H2,(H,9,10)(H2,6,7,8,11)
Instrument: waters xevo g2 TOF
Instrument type: ESI-TOF
Ms type: MS2
Ion mode: POSITIVE
Ionization: ESI
Collision energy: 6.0000000
Column name: Acquity CSHC18
Retention time: 0.628 min
Base peak: 159.04076
Precursor m/z: 159.04076
Precursor type: [M+H]+
m/z	relative intensity
87.0566	38
88.0409	37
98.9624	7
113.0356	77
116.0351	26
123.1168	1
124.9567	4
131.0463	37
139.9641	53
141.0298	6
141.9594	971
159.0408	999
160.0437	30
167.9626	9
170.9894	4
172.9779	90
178.1236	12
191.0235	26
196.9872	23
205.9888	5
208.989	54
213.9468	36
214.9997	11
230.8916	3
238.014	14
242.992	12
242.9957	5
243.979	13
246.8627	8
253.9862	32
257.9597	14
258.9655	49
274.025	25
289.9829	17
297.0061	4
299.9932	5
303.0506	18
319.0222	9
325.9966	43
326.9978	4
370.9919	92
371.9959	8
372.9919	30
484.0277	36
499.0571	2
513.0526	9
528.0181	6
529.023	10
