Mass spectrum: Quercetagetin 3,3',6-trimethyl ether; LC-ESI-QTOF; MS2; CE: 50eV;  [M-H]-
Name: Quercetagetin 3,3',6-trimethyl ether
Class: Flavonol
Formula: C18H16O8
Exact mass: 360.0845
SMILES: COC1=C(C=CC(=C1)C2=C(C(=O)C3=C(O2)C=C(C(=C3O)OC)O)OC)O
InChI: InChI=1S/C18H16O8/c1-23-11-6-8(4-5-9(11)19)16-18(25-3)15(22)13-12(26-16)7-10(20)17(24-2)14(13)21/h4-7,19-21H,1-3H3
Instrument: TIMS-TOF Pro, Bruker Daltonik; Elute UHPLC System, Bruker Daltonik
Instrument type: LC-ESI-QTOF
Ms type: MS2
Ion mode: NEGATIVE
Ionization: ESI
Collision energy: 50eV
Column name: Acquity CSHC18
Retention time: 7.960 min
Base peak: 359.0698
Precursor m/z: 359.0698
Precursor type: [M-H]-
Precursor intensity: 22739
m/z	relative intensity
77.46	44
130.3482	433
181.7702	44
277.3967	44
341.0407	408
345.0474	999
359.0668	344
