Mass spectrum: Succinic acid; LC-ESI-ITFT; MS2; CE: 10;  [M-H]-
Name: Succinic acid
Class: Organic acids and derivatives; Carboxylic acids and derivatives; Dicarboxylic acids and derivatives
Formula: C4H6O4
Exact mass: 118.02661
SMILES: OC(=O)CCC(O)=O
InChI: InChI=1S/C4H6O4/c5-3(6)1-2-4(7)8/h1-2H2,(H,5,6)(H,7,8)
Instrument: Thermo Scientific Q-Exactive Focus
Instrument type: LC-ESI-ITFT
Ms type: MS2
Ion mode: NEGATIVE
Ionization: ESI
Collision energy: 10
Column name: Acquity CSHC18
Retention time: 0.360 min
Base peak: 117.01933
Precursor m/z: 117.01933
Precursor type: [M-H]-
m/z	relative intensity
66.9908	1
73.0283	999
99.0076	97
112.3415	1
116.9274	4
117.0182	245
122.2692	1
124.0308	1
127.0446	1
134.904	1
