Mass spectrum: Linoleic acid; LC-ESI-QTOF; MS2; CE: 15;  [M-H]-
Name: Linoleic acid
Class: NA
Formula: C18H32O2
Exact mass: 280.2402
SMILES: CCCCCC=CCC=CCCCCCCCC(=O)O
InChI: InChI=1S/C18H32O2/c1-2-3-4-5-6-7-8-9-10-11-12-13-14-15-16-17-18(19)20/h6-7,9-10H,2-5,8,11-17H2,1H3,(H,19,20)
Instrument: Bruker MicrOTOF-Q
Instrument type: LC-ESI-QTOF
Ms type: MS2
Ion mode: NEGATIVE
Ionization: ESI
Collision energy: 15
Column name: Acquity CSHC18
Retention time: NA
Base peak: 279.2330
Precursor m/z: 279.2330
Precursor type: [M-H]-
m/z	relative intensity
58.8194	33
59.5292	48
61.1242	44
61.6686	38
69.3872	45
87.4653	35
91.709	41
97.9657	51
98.5357	50
105.2282	32
108.3028	73
123.3584	41
125.1256	32
125.817	45
129.5119	38
135.8926	59
143.6754	37
145.1265	42
148.657	38
155.8637	41
156.3699	53
157.8966	61
161.2132	64
166.011	45
166.8091	58
168.3829	41
169.2402	42
172.3185	44
184.0933	53
185.0937	36
186.8702	58
188.5763	41
189.8074	50
192.5368	56
195.1961	42
196.0549	35
197.1548	71
199.9246	67
209.056	48
211.1387	67
212.0952	53
216.0842	32
218.327	38
219.1153	44
221.197	39
222.847	38
224.8142	61
230.292	51
231.3846	45
234.2819	42
240.226	53
243.2108	84
243.6753	51
254.2957	39
254.7497	38
256.8373	41
261.2223	334
262.2274	103
263.4528	41
271.5932	32
277.1411	53
279.6533	999
282.2849	48
283.012	45
297.1037	36
307.6908	33
323.8502	56
351.8939	38
364.3047	41
410.9483	50
431.2159	36
540.6073	30
553.5148	45
609.2206	45
782.114	41
908.7298	32
952.4786	53
