Mass spectrum: 1-O-1'-(Z)-octadecenyl-2-hydroxy-sn-glycero-3-phosphocholine; ESI-TOF; MS2; CE: 6.0000000;  [M+H]+
Name: 1-O-1'-(Z)-octadecenyl-2-hydroxy-sn-glycero-3-phosphocholine
Class: NA
Formula: C26H54NO6P
Exact mass: 507.36888
SMILES: [H]OC([H])(C([H])([H])OC([H])=C([H])C([H])([H])C([H])([H])C([H])([H])C([H])([H])C([H])([H])C([H])([H])C([H])([H])C([H])([H])C([H])([H])C([H])([H])C([H])([H])C([H])([H])C([H])([H])C([H])([H])C([H])([H])C([H])([H])[H])C([H])([H])OP(=O)([O-])OC([H])([H])C([H])([H])[N+](C([H])([H])[H])(C([H])([H])[H])C([H])([H])[H]
InChI: InChI=1S/C26H54NO6P/c1-5-6-7-8-9-10-11-12-13-14-15-16-17-18-19-20-22-31-24-26(28)25-33-34(29,30)32-23-21-27(2,3)4/h20,22,26,28H,5-19,21,23-25H2,1-4H3
Instrument: waters xevo g2 TOF
Instrument type: ESI-TOF
Ms type: MS2
Ion mode: POSITIVE
Ionization: ESI
Collision energy: 6.0000000
Column name: Acquity CSHC18
Retention time: 7.763 min
Base peak: 508.37688
Precursor m/z: 508.37688
Precursor type: [M+H]+
m/z	relative intensity
104.1076	11
139.5272	1
148.5324	2
160.0404	1
184.0739	3
245.6524	5
258.109	6
265.6763	3
266.1786	1
273.6661	157
274.1676	62
274.6688	8
275.4642	3
281.6521	8
282.1546	3
282.6565	1
289.6799	1
315.6426	2
339.1368	1
400.6935	2
490.3657	1
508.4049	999
509.3807	599
