Mass spectrum: 3-NITRO-L-TYROSINE; LC-ESI-QTOF; MS2; CE: 20;  [M+H]+
Name: 3-NITRO-L-TYROSINE
Class: NA
Formula: C9H10N2O5
Exact mass: 226.0590
SMILES: C1=CC(=C(C=C1CC(C(=O)O)N)[N+](=O)[O-])O
InChI: InChI=1S/C9H10N2O5/c10-6(9(13)14)3-5-1-2-8(12)7(4-5)11(15)16/h1-2,4,6,12H,3,10H2,(H,13,14)
Instrument: Agilent 6530Â Q-TOF LC/MS
Instrument type: LC-ESI-QTOF
Ms type: MS2
Ion mode: POSITIVE
Ionization: ESI
Collision energy: 20
Column name: NA
Retention time: 0.200 min
Base peak: 227.06693
Precursor m/z: 227.06693
Precursor type: [M+H]+
Precursor intensity: 116.5
m/z	relative intensity
63.021	29
65.0386	36
70.0646	40
79.0484	41
80.0564	43
90.034	44
92.0501	53
94.0393	57
96.0798	58
102.0304	59
104.0473	77
105.055	82
106.0424	93
107.0502	93
114.0889	95
117.0439	96
118.0594	97
119.0582	103
120.0531	105
122.0352	118
133.0499	125
134.0575	219
135.0667	265
136.0388	283
164.0286	360
168.027	399
181.0588	692
227.1772	999
