Mass spectrum: cinchonine; LC-ESI-ITFT; MS2; CE: 0.3;  [M+H]+
Name: cinchonine
Class: alkaloids
Formula: C19H22N2O
Exact mass: 294.1732
SMILES: C=CC1CN2CCC1CC2C(C3=CC=NC4=CC=CC=C34)O
InChI: InChI=1S/C19H22N2O/c1-2-13-12-21-10-8-14(13)11-18(21)19(22)16-7-9-20-17-6-4-3-5-15(16)17/h2-7,9,13-14,18-19,22H,1,8,10-12H2
Instrument: LTQ-Orbitrap XL hybrid mass spectrometer (Thermo Scientific)
Instrument type: LC-ESI-ITFT
Ms type: MS2
Ion mode: POSITIVE
Ionization: ESI
Collision energy: 0.3
Column name: Acquity CSHC18
Retention time: 3.527 min
Base peak: 295.1801
Precursor m/z: 295.1801
Precursor type: [M+H]+
Precursor intensity: 26573730
m/z	relative intensity
70.5194	3
81.0317	5
105.0701	5
108.0803	8
110.0961	20
116.5591	3
122.096	11
122.9082	3
130.0647	46
132.0799	12
134.0962	44
143.0715	9
144.0803	32
154.065	42
154.3633	4
156.0804	57
166.0654	7
166.1226	28
166.974	18
167.0725	7
167.2582	4
168.0808	83
169.0759	13
170.0955	8
171.0917	5
172.0751	9
180.081	22
182.096	12
183.0907	9
194.0963	14
195.0907	4
196.1127	21
197.1072	25
197.5187	8
205.0883	4
206.0956	14
208.1115	19
209.1085	12
210.1281	6
218.0967	8
219.1046	11
220.1116	17
221.1066	7
222.1258	14
223.123	46
232.1132	15
234.1278	133
235.1231	29
236.1392	26
246.1279	44
248.1437	52
249.1384	13
252.1389	16
260.143	11
266.1537	8
267.1866	7
275.1544	12
275.3174	4
275.968	4
276.6625	5
277.17	999
278.1737	7
279.1889	10
287.193	12
295.1809	31
