Mass spectrum: INDOLE-3-ETHANOL; LC-ESI-QTOF; MS2; CE: 40;  [M+H]+
Name: INDOLE-3-ETHANOL
Class: NA
Formula: C10H11NO
Exact mass: 161.08406
SMILES: OCCC1=CNC2=CC=CC=C12
InChI: InChI=1S/C10H11NO/c12-6-5-8-7-11-10-4-2-1-3-9(8)10/h1-4,7,11-12H,5-6H2
Instrument: Agilent 6530Â Q-TOF LC/MS
Instrument type: LC-ESI-QTOF
Ms type: MS2
Ion mode: POSITIVE
Ionization: ESI
Collision energy: 40
Column name: NA
Retention time: 0.200 min
Base peak: 162.08885
Precursor m/z: 162.08885
Precursor type: [M+H]+
Precursor intensity: 176.5
m/z	relative intensity
41.0353	106
51.027	126
65.0491	142
67.0425	163
75.0286	186
77.055	187
89.0575	210
90.0663	239
91.0753	244
101.0507	269
103.0655	328
115.0795	328
116.0653	331
117.0801	384
126.0611	588
127.0604	650
128.0572	683
130.0821	711
142.0695	727
143.0926	903
144.0815	999
