Mass spectrum: Luteolin-7-O-glucoside; LC-ESI-QTOF; MS2; CE: 26.18;  [M+H]+
Name: Luteolin-7-O-glucoside
Class: NA
Formula: C21H20O11
Exact mass: 448.1006
SMILES: C1=CC(=C(C=C1C2=CC(=O)C3=C(C=C(C=C3O2)OC4C(C(C(C(O4)CO)O)O)O)O)O)O
InChI: InChI=1S/C21H20O11/c22-7-16-18(27)19(28)20(29)21(32-16)30-9-4-12(25)17-13(26)6-14(31-15(17)5-9)8-1-2-10(23)11(24)3-8/h1-6,16,18-25,27-29H,7H2
Instrument: Bruker MicrOTOF-Q
Instrument type: LC-ESI-QTOF
Ms type: MS2
Ion mode: POSITIVE
Ionization: ESI
Collision energy: 26.18
Column name: Acquity CSHC18
Retention time: NA
Base peak: 449.1078
Precursor m/z: 449.1078
Precursor type: [M+H]+
m/z	relative intensity
287.0563	23
288.0591	163
289.061	999
