Mass spectrum: Prostaglandin E1 Ethanolamide; ESI-TOF; MS2; CE: 6.0000000;  [M+H]+
Name: Prostaglandin E1 Ethanolamide
Class: NA
Formula: C22H39NO5
Exact mass: 397.28282
SMILES: CCCCCC(O)/C=C/[C@H]1C(O)CC(=O)C1CCCCCCC(=O)NCCO
InChI: InChI=1S/C22H39NO5/c1-2-3-6-9-17(25)12-13-19-18(20(26)16-21(19)27)10-7-4-5-8-11-22(28)23-14-15-24/h12-13,17-19,21,24-25,27H,2-11,14-16H2,1H3,(H,23,28)/b13-12+/t17?,18?,19-,21?/m1/s1
Instrument: waters xevo g2 TOF
Instrument type: ESI-TOF
Ms type: MS2
Ion mode: POSITIVE
Ionization: ESI
Collision energy: 6.0000000
Column name: Acquity CSHC18
Retention time: 3.216 min
Base peak: 398.29082
Precursor m/z: 398.29082
Precursor type: [M+H]+
m/z	relative intensity
113.9651	14
123.1176	1
180.1346	1
187.6045	3
199.6033	1
200.611	8
201.1138	1
208.6101	3
209.6178	10
210.1186	5
230.248	2
296.1187	5
308.1738	4
309.2635	1
310.2732	11
336.2535	22
337.2565	3
342.244	2
344.2583	40
345.2587	7
360.2524	20
361.2576	4
362.2691	205
363.2242	25
378.2648	66
379.2673	1
380.2802	999
381.2832	261
382.2861	36
383.286	1
398.293	4
