Mass spectrum: N1-Acetylspermine; ESI-TOF; MS2; CE: 6.0000000;  [M+H]+
Name: N1-Acetylspermine
Class: NA
Formula: C12H28N4O
Exact mass: 244.22631
SMILES: CC(=O)NCCCNCCCCNCCCN
InChI: InChI=1S/C12H28N4O/c1-12(17)16-11-5-10-15-8-3-2-7-14-9-4-6-13/h14-15H,2-11,13H2,1H3,(H,16,17)
Instrument: waters xevo g2 TOF
Instrument type: ESI-TOF
Ms type: MS2
Ion mode: POSITIVE
Ionization: ESI
Collision energy: 6.0000000
Column name: Acquity CSHC18
Retention time: 0.438 min
Base peak: 245.23431
Precursor m/z: 245.23431
Precursor type: [M+H]+
m/z	relative intensity
72.0819	2
97.9697	19
100.0767	37
102.1288	4
112.1131	406
113.1164	38
117.1033	2
119.0171	14
127.1231	1
129.1396	788
130.1426	73
130.9662	1
137.9885	27
141.1398	7
146.1661	106
147.1696	8
160.9908	3
171.0855	228
172.153	50
173.0714	8
186.1971	13
187.2008	1
188.1765	23
203.2241	44
204.2272	4
227.2243	32
245.2345	999
246.2369	163
