Mass spectrum: Melibiose; ESI-TOF; MS2; CE: 6.0000000;  [M+H]+
Name: Melibiose
Class: NA
Formula: C12H22O11
Exact mass: 342.11621
SMILES: OCC1OC(OCC2OC(O)C(O)C(O)C2O)C(O)C(O)C1O
InChI: InChI=1S/C12H22O11/c13-1-3-5(14)8(17)10(19)12(23-3)21-2-4-6(15)7(16)9(18)11(20)22-4/h3-20H,1-2H2
Instrument: waters xevo g2 TOF
Instrument type: ESI-TOF
Ms type: MS2
Ion mode: POSITIVE
Ionization: ESI
Collision energy: 6.0000000
Column name: Acquity CSHC18
Retention time: 0.552 min
Base peak: 343.12421
Precursor m/z: 343.12421
Precursor type: [M+H]+
m/z	relative intensity
91.0398	55
135.9927	39
145.0499	382
146.0532	32
163.0608	498
173.9812	42
174.9681	2
186.9699	2
203.973	2
204.0867	29
211.5542	49
216.9789	11
275.9952	2
277.0019	37
287.8915	29
325.1138	313
326.1178	35
337.0221	219
349.133	40
360.1516	414
361.1541	29
362.0982	44
365.106	999
396.0355	907
397.0392	50
456.0572	149
487.1679	46
707.2229	150
738.1504	190
739.1506	63
