Mass spectrum: N-Methyl stylopine; ESI-QTOF; MS2; CE: 1, 35, 60;  [M+H]+
Name: N-Methyl stylopine
Class: Benzylisoquinoline (subclass:Benzophenanthridine) alkaloid
Formula: [C20H20NO4]+
Exact mass: 338.1387
SMILES: C[N+]12CCC3=CC4=C(C=C3C1CC5=C(C2)C6=C(C=C5)OCO6)OCO4
InChI: InChI=1S/C20H20NO4/c1-21-5-4-13-7-18-19(24-10-23-18)8-14(13)16(21)6-12-2-3-17-20(15(12)9-21)25-11-22-17/h2-3,7-8,16H,4-6,9-11H2,1H3/q+1
Instrument: AB Sciex TripleToF 5500
Instrument type: ESI-QTOF
Ms type: MS2
Ion mode: POSITIVE
Ionization: ESI
Collision energy: 1, 35, 60
Column name: Acquity CSHC18
Retention time: 5.681 min
Base peak: 339.1400
Precursor m/z: 339.1400
Precursor type: [M+H]+
Precursor intensity: 695934.3
m/z	relative intensity
104.0493	118
119.0585	161
131.0578	166
145.0561	171
150.0532	171
163.063	181
192.0731	189
193.0802	221
202.074	226
206.0793	278
223.0678	325
234.0796	428
237.0655	429
249.0802	499
308.1127	999
