Mass spectrum: Gibberellin A3; LC-ESI-ITFT; MS2; CE: 30;  [M-H]-
Name: Gibberellin A3
Class: Lipids and lipid-like molecules; Prenol lipids; Diterpenoids
Formula: C19H22O6
Exact mass: 346.14164
SMILES: [H][C@@]12CC[C@]3(O)C[C@]1(CC3=C)[C@@H](C(O)=O)[C@]1([H])[C@]3(C)[C@@H](O)C=C[C@@]21OC3=O
InChI: InChI=1S/C19H22O6/c1-9-7-17-8-18(9,24)5-3-10(17)19-6-4-11(20)16(2,15(23)25-19)13(19)12(17)14(21)22/h4,6,10-13,20,24H,1,3,5,7-8H2,2H3,(H,21,22)/t10-,11+,12-,13-,16+,17+,18+,19-/m1/s1
Instrument: Thermo Scientific Q-Exactive Focus
Instrument type: LC-ESI-ITFT
Ms type: MS2
Ion mode: NEGATIVE
Ionization: ESI
Collision energy: 30
Column name: Acquity CSHC18
Retention time: 0.926 min
Base peak: 345.13437
Precursor m/z: 345.13437
Precursor type: [M-H]-
m/z	relative intensity
71.049	179
73.0283	38
83.049	110
143.0856	999
161.0961	32
201.1276	28
221.1331	366
227.1073	184
239.1437	48
271.0976	25
