Mass spectrum: berberine; LC-ESI-ITFT; MS2; CE: 0.3;  [M]+
Name: berberine
Class: alkaloids
Formula: [C20H18NO4]+
Exact mass: 336.1230
SMILES: COC1=C(C2=C[N+]3=C(C=C2C=C1)C4=CC5=C(C=C4CC3)OCO5)OC
InChI: InChI=1S/C20H18NO4/c1-22-17-4-3-12-7-16-14-9-19-18(24-11-25-19)8-13(14)5-6-21(16)10-15(12)20(17)23-2/h3-4,7-10H,5-6,11H2,1-2H3/q+1
Instrument: LTQ-Orbitrap XL hybrid mass spectrometer (Thermo Scientific)
Instrument type: LC-ESI-ITFT
Ms type: MS2
Ion mode: POSITIVE
Ionization: ESI
Collision energy: 0.3
Column name: Acquity CSHC18
Retention time: 6.717 min
Base peak: 336.1228
Precursor m/z: 336.1228
Precursor type: [M]+
Precursor intensity: 71400120
m/z	relative intensity
80.3866	1
81.0328	2
82.4022	1
86.3384	1
143.4394	1
161.4163	1
163.0727	1
166.942	7
182.5305	1
197.441	2
212.8544	1
220.7243	1
235.6282	1
245.7899	1
249.1498	1
275.095	1
287.1617	3
292.0968	187
293.1002	5
294.2795	1
304.0977	10
305.105	8
306.0761	15
306.1143	3
318.6115	9
319.0729	1
319.434	2
319.7588	1
319.7813	1
320.0916	144
320.7475	1
320.7628	1
320.8133	2
320.8343	1
320.8508	2
320.8841	3
320.9185	4
320.9377	3
320.9707	5
320.9917	4
321.0074	5
321.0393	7
321.0996	999
321.145	3
321.1661	4
321.181	5
321.1981	4
321.2153	4
321.2329	3
321.2511	3
321.2662	4
321.3006	2
321.3191	2
321.3524	3
321.3865	2
321.4063	1
321.4978	1
321.5105	1
322.1031	40
322.7672	1
323.6158	9
324.1254	5
336.1228	99
