Mass spectrum: Miltirone; LC-ESI-QFT; MS2; CE: 15,30,45 (NCE);  [M+NH4]+
Name: Miltirone
Class: NA
Formula: C19H22O2
Exact mass: 282.1620
SMILES: CC(C)C1=CC2=C(C(=O)C1=O)C1=C(C=C2)C(C)(C)CCC1
InChI: InChI=1S/C19H22O2/c1-11(2)14-10-12-7-8-15-13(6-5-9-19(15,3)4)16(12)18(21)17(14)20/h7-8,10-11H,5-6,9H2,1-4H3
Instrument: QE Focus, Thermo Scientfic; UPLC I-Class, Waters
Instrument type: LC-ESI-QFT
Ms type: MS2
Ion mode: POSITIVE
Ionization: ESI
Collision energy: 15,30,45 (NCE)
Column name: Acquity CSHC18
Retention time: 5.087 min
Base peak: 300.1958
Precursor m/z: 300.1958
Precursor type: [M+NH4]+
Precursor intensity: 84885690
m/z	relative intensity
53.6794	2
63.1051	2
68.5224	3
81.399	2
89.1084	2
95.0071	2
177.5699	3
181.0644	16
195.0805	5
195.117	35
197.0935	2
199.0753	6
205.1016	4
208.0883	13
209.096	3
222.1036	12
223.1118	202
225.0916	4
237.1277	11
237.1637	26
240.1143	90
240.1371	5
241.1224	83
250.1357	3
254.1305	20
265.1591	113
268.1458	14
283.1692	999
298.9564	3
