Mass spectrum: Creatinine; LC-ESI-ITFT; MS2; CE: 20;  [M-H]-
Name: Creatinine
Class: Organic acids and derivatives; Carboxylic acids and derivatives; Amino acids, peptides, and analogues
Formula: C4H7N3O
Exact mass: 113.05891
SMILES: CN1CC(=O)NC1=N
InChI: InChI=1S/C4H7N3O/c1-7-2-3(8)6-4(7)5/h2H2,1H3,(H2,5,6,8)
Instrument: Thermo Scientific Q-Exactive Focus
Instrument type: LC-ESI-ITFT
Ms type: MS2
Ion mode: NEGATIVE
Ionization: ESI
Collision energy: 20
Column name: Acquity CSHC18
Retention time: 0.642 min
Base peak: 112.05164
Precursor m/z: 112.05164
Precursor type: [M-H]-
m/z	relative intensity
61.0247	17
68.9945	703
70.2253	18
78.6513	18
88.2252	18
104.0376	18
110.5773	20
112.0505	999
117.2617	19
120.9924	17
