Mass spectrum: CTP; LC-ESI-QTOF; MS2; CE: 15 / 50;  [M+H]+
Name: CTP
Class: Pentose phosphates
Formula: C9H16N3O14P3
Exact mass: 482.98451
SMILES: NC1=NC(=O)N(C=C1)[C@@H]1O[C@H](COP(O)(=O)OP(O)(=O)OP(O)(O)=O)[C@@H](O)[C@H]1O
InChI: InChI=1S/C9H16N3O14P3/c10-5-1-2-12(9(15)11-5)8-7(14)6(13)4(24-8)3-23-28(19,20)26-29(21,22)25-27(16,17)18/h1-2,4,6-8,13-14H,3H2,(H,19,20)(H,21,22)(H2,10,11,15)(H2,16,17,18)/t4-,6-,7-,8-/m1/s1
Instrument: impact II
Instrument type: LC-ESI-QTOF
Ms type: MS2
Ion mode: POSITIVE
Ionization: ESI
Collision energy: 15 / 50
Column name: Acquity CSHC18
Retention time: 0.584 min
Base peak: 483.99270
Precursor m/z: 483.99270
Precursor type: [M+H]+
m/z	relative intensity
97.0285	101
112.0506	999
483.9926	476
