Mass spectrum: Ophthalmic acid; LC-ESI-QTOF; MS2; CE: -10, -35, -60V;  [M-H]-
Name: Ophthalmic acid
Class: NA
Formula: C11H19N3O6
Exact mass: 289.1274
SMILES: CCC(C(=O)NCC(=O)O)NC(=O)CCC(C(=O)O)N
InChI: InChI=1S/C11H19N3O6/c1-2-7(10(18)13-5-9(16)17)14-8(15)4-3-6(12)11(19)20/h6-7H,2-5,12H2,1H3,(H,13,18)(H,14,15)(H,16,17)(H,19,20)
Instrument: TripleToF 5600; Sciex
Instrument type: LC-ESI-QTOF
Ms type: MS2
Ion mode: NEGATIVE
Ionization: ESI
Collision energy: -10, -35, -60V
Column name: Acquity CSHC18
Retention time: 4.115 min
Base peak: 288.1224
Precursor m/z: 288.1224
Precursor type: [M-H]-
Precursor intensity: 145314.3
m/z	relative intensity
84.0475	3
100.0402	8
112.0485	5
115.0917	14
141.0649	4
145.0647	3
152.0757	3
159.0795	29
167.0445	7
169.1015	4
185.0607	3
195.0806	64
208.1046	24
213.0907	20
226.1197	31
243.1031	24
270.1138	86
271.1146	21
287.2174	12
288.1248	999
