Mass spectrum: (+)-Borneol_pos; APCI-ITFT; MS2; CE: 35 CID;  [M+H-H2O]+
Name: (+)-Borneol_pos
Class: NA
Formula: C10H18O
Exact mass: 154.13577
SMILES: CC1(C2CCC1(C(C2)O)C)C
InChI: InChI=1S/C10H18O/c1-9(2)7-4-5-10(9,3)8(11)6-7/h7-8,11H,4-6H2,1-3H3
Instrument: Orbitrap Elite
Instrument type: APCI-ITFT
Ms type: MS2
Ion mode: POSITIVE
Ionization: APCI
Collision energy: 35 CID
Column name: Acquity CSHC18
Retention time: 0.110 min
Base peak: 137.13230
Precursor m/z: 137.13230
Precursor type: [M+H-H2O]+
Precursor intensity: 242523400
m/z	relative intensity
77.0383	1
79.054	26
81.0697	536
83.0857	1
93.0698	8
95.0856	634
102.4136	1
105.0448	1
107.0851	3
108.0933	1
109.101	47
135.1167	3
136.1204	2
137.1326	999
137.1573	3
