Mass spectrum: Adenosine; LC-ESI-ITFT; MS2; CE: 40;  [M+H]+
Name: Adenosine
Class: Nucleosides, nucleotides, and analogues; Purine nucleosides
Formula: C10H13N5O4
Exact mass: 267.09675
SMILES: NC1=C2N=CN([C@@H]3O[C@H](CO)[C@@H](O)[C@H]3O)C2=NC=N1
InChI: InChI=1S/C10H13N5O4/c11-8-5-9(13-2-12-8)15(3-14-5)10-7(18)6(17)4(1-16)19-10/h2-4,6-7,10,16-18H,1H2,(H2,11,12,13)/t4-,6-,7-,10-/m1/s1
Instrument: Thermo Scientific Q-Exactive Focus
Instrument type: LC-ESI-ITFT
Ms type: MS2
Ion mode: POSITIVE
Ionization: ESI
Collision energy: 40
Column name: Acquity CSHC18
Retention time: 1.468 min
Base peak: 268.10403
Precursor m/z: 268.10403
Precursor type: [M+H]+
m/z	relative intensity
55.0184	6
57.034	11
69.034	7
71.0133	6
92.0247	5
94.0403	29
109.0512	6
119.0354	69
136.0619	999
137.0458	65
