Mass spectrum: Scyllitol; ESI-TOF; MS2; CE: 0.6458333;  [M+H]+
Name: Scyllitol
Class: NA
Formula: C6H12O6
Exact mass: 180.06339
SMILES: OC1C(O)C(O)C(O)C(O)C1O
InChI: InChI=1S/C6H12O6/c7-1-2(8)4(10)6(12)5(11)3(1)9/h1-12H
Instrument: waters xevo g2 TOF
Instrument type: ESI-TOF
Ms type: MS2
Ion mode: POSITIVE
Ionization: ESI
Collision energy: 0.6458333
Column name: Acquity CSHC18
Retention time: 0.545 min
Base peak: 181.07139
Precursor m/z: 181.07139
Precursor type: [M+H]+
m/z	relative intensity
69.0348	96
71.0508	1
81.034	995
82.038	35
84.995	128
86.0368	317
96.9616	1
99.0446	97
101.0235	1
102.0343	38
109.0288	951
110.032	55
110.9761	58
111.9436	11
113.9403	109
114.9477	42
122.9545	11
124.9566	74
126.9936	111
128.0438	1
139.9636	129
143.9553	267
145.05	224
146.0572	1
149.961	1
151.0398	1
153.0314	175
159.0636	1
169.0086	94
169.9669	862
170.9721	82
177.0773	1
180.9823	32
182.5365	9
186.0764	1
187.0485	77
190.0232	1
194.1172	1
197.9618	627
198.9669	96
200.0451	699
200.548	72
201.0077	122
203.053	1
204.0565	1
205.0614	1
209.0508	101
211.977	137
215.9754	81
216.9799	484
219.0175	604
220.5587	1
222.9674	8
229.5447	1
230.543	1
233.9833	81
234.9922	552
235.9899	76
236.9914	313
239.9905	26
247.0406	10
251.0356	1
251.993	353
253.0005	82
258.1699	1
262.0536	36
265.0222	1
273.0141	1
275.0097	1
278.0314	439
279.0356	63
280.995	37
282.0868	1
282.9962	1
284.9922	1
290.043	137
290.5793	1
291.0791	1
291.5818	1
294.0036	873
295.0097	265
296.0082	48
297.0108	77
297.5657	1
298.0624	1
298.5649	1
299.0635	1
299.5657	1
300.0621	1
306.0032	173
307.0108	335
308.0173	31
309.0132	40
316.5395	9
318.0224	58
320.0195	758
321.0188	62
323.0107	1
324.0159	1
325.023	1
326.0306	1
329.9691	1
337.0146	1
340.0471	1
361.1346	1
362.1377	1
367.1103	27
383.1159	1
385.0924	202
386.094	1
396.0344	179
397.0402	28
405.098	1
407.0738	1
410.0506	13
412.0501	1
413.0568	1
414.0462	999
414.5503	1
415.0512	515
415.5461	1
416.0534	100
416.5433	1
417.055	71
419.0485	1
445.0859	1
531.0422	1
827.08	1
