Mass spectrum: BETAINE; LC-ESI-QFT; MS2; CE: 30eV;  [M+H]+
Name: BETAINE
Class: NA
Formula: C5H11NO2
Exact mass: 117.07898
SMILES: C[N+](C)(C)CC([O-])=O
InChI: InChI=1S/C5H11NO2/c1-6(2,3)4-5(7)8/h4H2,1-3H3
Instrument: Q-Exactive Orbitrap, Thermo Scientfic; Ultimate 3000 HPLC, Thermo Scientfic
Instrument type: LC-ESI-QFT
Ms type: MS2
Ion mode: POSITIVE
Ionization: ESI
Collision energy: 30eV
Column name: Acquity CSHC18
Retention time: 0.619 min
Base peak: 118.0863
Precursor m/z: 118.0863
Precursor type: [M+H]+
Precursor intensity: 110
m/z	relative intensity
51.3538	34
53.0899	31
54.5158	38
57.1144	31
61.1441	33
61.7297	30
61.7316	31
61.845	44
62.5982	34
62.7714	33
64.7839	35
67.2522	31
94.109	36
96.845	38
97.1992	38
99.2789	36
102.4944	36
119.09	999
128.5366	39
137.3493	36
137.8057	43
