Mass spectrum: 1,2-dipalmitoyl-sn-glycero-3-phosphocholine; ESI-TOF; MS2; CE: 0.6458333;  [M+H]+
Name: 1,2-dipalmitoyl-sn-glycero-3-phosphocholine
Class: NA
Formula: C40H80NO8P
Exact mass: 733.56216
SMILES: [H]C([H])([H])C([H])([H])C([H])([H])C([H])([H])C([H])([H])C([H])([H])C([H])([H])C([H])([H])C([H])([H])C([H])([H])C([H])([H])C([H])([H])C([H])([H])C([H])([H])C([H])([H])C(=O)OC([H])([H])C([H])(OC(=O)C([H])([H])C([H])([H])C([H])([H])C([H])([H])C([H])([H])C([H])([H])C([H])([H])C([H])([H])C([H])([H])C([H])([H])C([H])([H])C([H])([H])C([H])([H])C([H])([H])C([H])([H])[H])C([H])([H])OP(=O)([O-])OC([H])([H])C([H])([H])[N+](C([H])([H])[H])(C([H])([H])[H])C([H])([H])[H]
InChI: InChI=1S/C40H80NO8P/c1-6-8-10-12-14-16-18-20-22-24-26-28-30-32-39(42)46-36-38(37-48-50(44,45)47-35-34-41(3,4)5)49-40(43)33-31-29-27-25-23-21-19-17-15-13-11-9-7-2/h38H,6-37H2,1-5H3
Instrument: waters xevo g2 TOF
Instrument type: ESI-TOF
Ms type: MS2
Ion mode: POSITIVE
Ionization: ESI
Collision energy: 0.6458333
Column name: Acquity CSHC18
Retention time: 11.052 min
Base peak: 734.57016
Precursor m/z: 734.57016
Precursor type: [M+H]+
m/z	relative intensity
97.9758	2
125.0006	6
146.9826	5
161.0266	10
181.0265	2
184.0743	999
185.0775	57
186.0786	18
239.2382	2
295.1953	121
296.1987	15
299.1879	2
387.1716	3
419.2564	8
478.3288	130
479.3327	52
480.3348	11
494.2336	2
496.3371	5
515.4127	3
534.8884	18
551.4576	29
552.5068	14
573.4852	6
574.4876	3
587.3814	19
599.3673	3
625.4233	9
625.9237	10
626.4299	2
643.965	8
644.4664	6
644.9661	2
697.4774	20
698.4797	7
720.5498	2
734.5688	441
735.5727	208
