Mass spectrum: D-(-)-Fructose; LC-ESI-QTOF; MS2; CE: -10, -35, -60V;  [M-H]-
Name: D-(-)-Fructose
Class: NA
Formula: C6H12O6
Exact mass: 180.0634
SMILES: C(C(C(C(C(=O)CO)O)O)O)O
InChI: InChI=1S/C6H12O6/c7-1-3(9)5(11)6(12)4(10)2-8/h3,5-9,11-12H,1-2H2
Instrument: TripleToF 5600; Sciex
Instrument type: LC-ESI-QTOF
Ms type: MS2
Ion mode: NEGATIVE
Ionization: ESI
Collision energy: -10, -35, -60V
Column name: Acquity CSHC18
Retention time: 0.674 min
Base peak: 179.0576
Precursor m/z: 179.0576
Precursor type: [M-H]-
Precursor intensity: 119667.4
m/z	relative intensity
71.0133	474
87.0106	50
89.0262	999
113.0281	102
143.0326	78
179.0609	782
