Mass spectrum: Glycine; LC-ESI-ITFT; MS2; CE: 10;  [M+H]+
Name: Glycine
Class: Organic acids and derivatives; Carboxylic acids and derivatives; Amino acids, peptides, and analogues
Formula: C2H5NO2
Exact mass: 75.03203
SMILES: NCC(O)=O
InChI: InChI=1S/C2H5NO2/c3-1-2(4)5/h1,3H2,(H,4,5)
Instrument: Thermo Scientific Q-Exactive Focus
Instrument type: LC-ESI-ITFT
Ms type: MS2
Ion mode: POSITIVE
Ionization: ESI
Collision energy: 10
Column name: Acquity CSHC18
Retention time: 0.348 min
Base peak: 76.03930
Precursor m/z: 76.03930
Precursor type: [M+H]+
m/z	relative intensity
54.466	20
58.0293	122
58.0657	87
59.0735	53
67.509	21
76.0398	999
76.0762	32
77.1255	20
78.9694	24
94.9301	22
