Mass spectrum: Benzoic acid; LC-ESI-QTOF; MS2; CE: 15.00;  [2M-2O+H]+
Name: Benzoic acid
Class: NA
Formula: C7H6O2
Exact mass: 122.0368
SMILES: C1=CC=C(C=C1)C(=O)O
InChI: InChI=1S/C7H6O2/c8-7(9)6-4-2-1-3-5-6/h1-5H,(H,8,9)
Instrument: Bruker MicrOTOF-Q
Instrument type: LC-ESI-QTOF
Ms type: MS2
Ion mode: POSITIVE
Ionization: ESI
Collision energy: 15.00
Column name: Acquity CSHC18
Retention time: NA
Base peak: 213.0910
Precursor m/z: 213.0910
Precursor type: [2M-2O+H]+
m/z	relative intensity
135.0369	999
155.9676	457
177.0716	561
185.1822	582
214.1913	541
