Mass spectrum: Hesperidin methylchalcone; LC-ESI-QTOF; MS2; CE: 32.46;  [M-H]-
Name: Hesperidin methylchalcone
Class: NA
Formula: C29H36O15
Exact mass: 624.2054
SMILES: CC1C(C(C(C(O1)OCC2C(C(C(C(O2)OC3=CC(=C(C(=C3)OC)C(=O)C=CC4=CC(=C(C=C4)OC)O)O)O)O)O)O)O)O
InChI: InChI=1S/C29H36O15/c1-12-22(33)24(35)26(37)28(42-12)41-11-20-23(34)25(36)27(38)29(44-20)43-14-9-17(32)21(19(10-14)40-3)15(30)6-4-13-5-7-18(39-2)16(31)8-13/h4-10,12,20,22-29,31-38H,11H2,1-3H3
Instrument: Bruker MicrOTOF-Q
Instrument type: LC-ESI-QTOF
Ms type: MS2
Ion mode: NEGATIVE
Ionization: ESI
Collision energy: 32.46
Column name: Acquity CSHC18
Retention time: NA
Base peak: 623.1981
Precursor m/z: 623.1981
Precursor type: [M-H]-
m/z	relative intensity
164.0106	31
271.0995	49
285.0403	57
300.0657	92
301.0708	24
315.0895	999
316.093	214
317.0989	37
329.1085	25
339.0905	34
357.0945	34
