Mass spectrum: PYRIDOXAL; LC-ESI-QTOF; MS2; CE: 20;  [M+H]+
Name: PYRIDOXAL
Class: NA
Formula: C8H9NO3
Exact mass: 167.05824
SMILES: CC1=NC=C(CO)C(C=O)=C1O
InChI: InChI=1S/C8H9NO3/c1-5-8(12)7(4-11)6(3-10)2-9-5/h2,4,10,12H,3H2,1H3
Instrument: Agilent 6530Â Q-TOF LC/MS
Instrument type: LC-ESI-QTOF
Ms type: MS2
Ion mode: POSITIVE
Ionization: ESI
Collision energy: 20
Column name: NA
Retention time: 0.200 min
Base peak: 168.06185
Precursor m/z: 168.06185
Precursor type: [M+H]+
Precursor intensity: 27.5
m/z	relative intensity
41.0947	17
41.5297	17
42.0534	17
44.0481	17
51.0337	17
52.0355	17
53.2078	17
53.6372	17
54.0515	17
56.0564	18
65.127	18
65.5001	18
66.0521	18
67.4126	18
68.035	18
68.3233	18
68.9977	19
75.022	19
76.0156	19
77.0711	19
77.2526	19
77.5245	19
78.0679	20
79.0712	20
79.3748	21
80.063	21
81.0558	22
82.0573	22
92.0718	22
93.0837	23
94.7223	24
95.6131	25
96.0541	28
96.3802	33
97.0509	34
104.0641	40
106.3409	42
107.0434	51
107.7591	55
108.0597	56
109.033	59
110.0587	61
120.0363	75
122.6523	85
123.5051	135
123.6849	153
134.0652	206
137.0378	210
138.0527	290
140.0667	406
148.0767	433
149.0791	458
149.3872	505
149.6104	528
149.8825	552
151.0594	561
152.3523	683
152.5383	865
152.9349	903
168.0731	999
