Mass spectrum: Eriodictyol-7-O-glucoside; LC-ESI-QTOF; MS2; CE: 20-40eV;  [M+H]+
Name: Eriodictyol-7-O-glucoside
Class: flavonoid
Formula: C21H22O11
Exact mass: 450.1162
SMILES: C1=CC(=C(C=C1C2(CC(C3=C(C=C(C=C3O2)OC4(C(C(C(C(CO)(O4)[H])(O)[H])(O)[H])(O)[H])[H])O)=O)[H])O)O
InChI: InChI=1S/C21H22O11/c22-7-16-18(27)19(28)20(29)21(32-16)30-9-4-12(25)17-13(26)6-14(31-15(17)5-9)8-1-2-10(23)11(24)3-8/h1-5,14,16,18-25,27-29H,6-7H2
Instrument: Impact II, Bruker; Dionex 3000, Thermo Scientific
Instrument type: LC-ESI-QTOF
Ms type: MS2
Ion mode: POSITIVE
Ionization: ESI
Collision energy: 20-40eV
Column name: Acquity CSHC18
Retention time: 4.168 min
Base peak: 451.1229
Precursor m/z: 451.1229
Precursor type: [M+H]+
Precursor intensity: 5212
m/z	relative intensity
97.0267	22
119.0476	29
127.0375	16
128.0401	10
133.066	12
135.0432	31
136.0454	11
145.0276	19
145.0484	71
153.0173	350
154.0217	26
163.039	251
164.042	30
165.0186	10
171.0284	16
179.0347	26
195.0295	10
205.048	19
220.0991	11
225.0538	12
237.131	12
289.0704	999
290.0729	153
291.0744	25
302.0765	13
308.1935	9
313.0669	16
355.076	12
415.1001	9
