Mass spectrum: Nicotinic acid; LC-ESI-ITFT; MS2; CE: 60;  [M-H]-
Name: Nicotinic acid
Class: Organoheterocyclic compounds; Pyridines and derivatives; Pyridinecarboxylic acids and derivatives
Formula: C6H5NO2
Exact mass: 123.03203
SMILES: OC(=O)C1=CN=CC=C1
InChI: InChI=1S/C6H5NO2/c8-6(9)5-2-1-3-7-4-5/h1-4H,(H,8,9)
Instrument: Thermo Scientific Q-Exactive Focus
Instrument type: LC-ESI-ITFT
Ms type: MS2
Ion mode: NEGATIVE
Ionization: ESI
Collision energy: 60
Column name: Acquity CSHC18
Retention time: 2.026 min
Base peak: 122.02475
Precursor m/z: 122.02475
Precursor type: [M-H]-
m/z	relative intensity
71.8977	882
77.3377	965
86.9685	917
87.8248	884
95.8696	999
104.3891	933
118.2695	920
121.2734	956
130.5612	937
135.3644	885
