Mass spectrum: Lyciumoside IV; LC-ESI-QTOF; MS2; CE: 20eV; [M+NH4]+
Name: Lyciumoside IV
Class: Diterpene
Formula: C38H64O16
Exact mass: 776.4194
SMILES: CC1C(C(C(C(O1)OC2C(OC(C(C2O)O)OC(C)(CCC=C(C)CCC=C(C)CCC=C(C)COC3C(C(C(C(O3)CO)O)O)O)C=C)CO)O)O)O
InChI: InChI=1S/C38H64O16/c1-7-38(6,54-37-33(48)30(45)34(25(18-40)52-37)53-36-32(47)28(43)26(41)23(5)50-36)16-10-15-21(3)12-8-11-20(2)13-9-14-22(4)19-49-35-31(46)29(44)27(42)24(17-39)51-35/h7,11,14-15,23-37,39-48H,1,8-10,12-13,16-19H2,2-6H3
Instrument: Microtof-q MS
Instrument type: LC-ESI-QTOF
Ms type: MS2
Ion mode: POSITIVE
Ionization: ESI
Collision energy: 20eV
Column name: Acquity CSH C18 column (particle size 1.7 μm, column length 2.1 × 50 mm) (Waters)
Retention time: NA
Base peak: 794.4547
Precursor m/z: 794.4547
Precursor type: [M+NH4]+
m/z	relative intensity
129.0552	71
149.1330	98
159.1161	37
161.1325	82
163.1480	109
175.1476	69
177.1635	80
189.1640	65
201.1627	72
203.1788	53
215.1792	154
216.1819	27
229.1943	32
231.2100	52
255.0871	53
271.2418	999
272.2458	190
273.0969	155
273.2499	28
289.2526	182
290.2553	35
309.1182	445
310.1213	53
399.2885	43
417.2995	120
418.3036	31
433.2936	31
