Mass spectrum: Ribose-5-phosphate; LC-ESI-QTOF; MS2; CE: 15.00;  [M+Na]+
Name: Ribose-5-phosphate
Class: NA
Formula: C5H11O8P
Exact mass: 230.0192
SMILES: C(C(C(C(C=O)O)O)O)OP(=O)(O)O
InChI: InChI=1S/C5H11O8P/c6-1-3(7)5(9)4(8)2-13-14(10,11)12/h1,3-5,7-9H,2H2,(H2,10,11,12)
Instrument: Bruker MicrOTOF-Q
Instrument type: LC-ESI-QTOF
Ms type: MS2
Ion mode: POSITIVE
Ionization: ESI
Collision energy: 15.00
Column name: Acquity CSHC18
Retention time: NA
Base peak: 253.0084
Precursor m/z: 253.0084
Precursor type: [M+Na]+
m/z	relative intensity
119.0051	13
120.0079	4
120.9636	81
121.0523	4
155.0341	10
162.9787	17
173.0414	98
174.0516	3
175.9797	7
177.974	4
184.9771	7
188.9421	6
192.9876	60
194.002	5
197.6652	5
216.9895	42
218.0003	4
234.1218	3
234.9996	185
251.7588	4
252.7532	4
253.0086	999
253.6104	4
254.0101	29
258.3502	25
