Mass spectrum: Isorhamnetin; LC-ESI-ITFT; MS2; CE: 0.3;  [M-H]-
Name: Isorhamnetin
Class: flavones
Formula: C16H12O7
Exact mass: 316.0583
SMILES: COC1=C(C=CC(=C1)C2=C(C(=O)C3=C(C=C(C=C3O2)O)O)O)O
InChI: InChI=1S/C16H12O7/c1-22-11-4-7(2-3-9(11)18)16-15(21)14(20)13-10(19)5-8(17)6-12(13)23-16/h2-6,17-19,21H,1H3
Instrument: LTQ-Orbitrap XL hybrid mass spectrometer (Thermo Scientific)
Instrument type: LC-ESI-ITFT
Ms type: MS2
Ion mode: NEGATIVE
Ionization: ESI
Collision energy: 0.3
Column name: Acquity CSHC18
Retention time: 8.940 min
Base peak: 315.0510
Precursor m/z: 315.0510
Precursor type: [M-H]-
Precursor intensity: 2113983
m/z	relative intensity
75.2442	7
79.1434	7
81.0584	10
87.947	7
97.3174	6
102.13	6
110.763	6
141.8275	7
167.0958	38
176.9282	7
197.6908	12
233.9352	6
235.9281	6
253.5774	7
286.585	7
287.0916	22
287.1253	7
290.4237	7
297.7773	13
300.0274	999
301.0312	91
302.3	7
