Mass spectrum: 8-iso Prostaglandin F1-beta; ESI-TOF; MS2; CE: 6.0000000;  [M+H]+
Name: 8-iso Prostaglandin F1-beta
Class: NA
Formula: C20H36O5
Exact mass: 356.25627
SMILES: CCCCC[C@H](O)/C=C/[C@H]1[C@H](O)C[C@@H](O)[C@H]1CCCCCCC(O)=O
InChI: InChI=1S/C20H36O5/c1-2-3-6-9-15(21)12-13-17-16(18(22)14-19(17)23)10-7-4-5-8-11-20(24)25/h12-13,15-19,21-23H,2-11,14H2,1H3,(H,24,25)/b13-12+/t15-,16-,17+,18+,19+/m0/s1
Instrument: waters xevo g2 TOF
Instrument type: ESI-TOF
Ms type: MS2
Ion mode: POSITIVE
Ionization: ESI
Collision energy: 6.0000000
Column name: Acquity CSHC18
Retention time: 3.470 min
Base peak: 357.26427
Precursor m/z: 357.26427
Precursor type: [M+H]+
m/z	relative intensity
93.0705	1
107.0683	1
109.1022	3
131.0871	1
133.1025	2
149.1343	2
158.0858	5
159.1181	2
161.1337	14
163.1486	4
167.0928	37
171.0956	8
171.5946	2
175.1488	4
176.0975	9
177.1641	8
180.0985	13
187.1484	14
189.134	13
195.1387	4
201.1642	3
205.1585	20
209.1531	1
211.1507	2
233.1562	3
241.1956	13
242.2005	2
259.2068	42
260.2078	6
265.2141	3
267.2105	7
277.2169	158
278.2195	22
279.2223	3
285.2215	42
286.2227	6
293.2436	5
295.2285	23
296.2282	4
301.2161	7
303.2325	999
304.2654	117
305.245	55
306.2407	3
320.1395	1
321.1924	104
322.246	48
323.2417	3
333.1741	1
337.2362	6
339.252	36
340.2572	10
348.1426	2
353.2682	7
