Mass spectrum: PHENYLETHANOLAMINE; LC-ESI-QFT; MS2; CE: 30eV;  [M+H]+
Name: PHENYLETHANOLAMINE
Class: NA
Formula: C8H11NO
Exact mass: 137.08406
SMILES: NCC(O)C1=CC=CC=C1
InChI: InChI=1S/C8H11NO/c9-6-8(10)7-4-2-1-3-5-7/h1-5,8,10H,6,9H2
Instrument: Q-Exactive Orbitrap, Thermo Scientfic; Ultimate 3000 HPLC, Thermo Scientfic
Instrument type: LC-ESI-QFT
Ms type: MS2
Ion mode: POSITIVE
Ionization: ESI
Collision energy: 30eV
Column name: Acquity CSHC18
Retention time: 1.129 min
Base peak: 138.0913
Precursor m/z: 138.0913
Precursor type: [M+H]+
Precursor intensity: 147
m/z	relative intensity
56.9427	3
58.3381	4
59.4291	3
67.0549	6
68.9435	6
69.0705	8
79.0548	10
81.0338	4
81.0704	33
81.892	3
83.0498	29
93.0704	51
95.0496	7
95.086	36
96.9381	7
97.0081	4
97.0652	17
103.0547	53
109.4684	5
114.9486	9
114.9714	10
119.5618	4
120.0811	999
121.0287	27
121.0649	6
121.0845	59
121.1014	19
125.4488	4
126.8012	5
127.98	18
132.7144	4
132.9588	19
137.1325	7
137.987	7
138.0175	10
138.055	11
138.1277	6
139.0392	10
139.0754	24
139.1119	36
145.5731	4
155.9746	5
