Mass spectrum: 1-METHYLADENOSINE; LC-ESI-QTOF; MS2; CE: 20;  [M+H]+
Name: 1-METHYLADENOSINE
Class: NA
Formula: C11H15N5O4
Exact mass: 281.1124
SMILES: CN1C=NC2=C(N=CN2[C@@H]2O[C@H](CO)[C@@H](O)[C@H]2O)C1=N
InChI: InChI=1S/C11H15N5O4/c1-15-3-14-10-6(9(15)12)13-4-16(10)11-8(19)7(18)5(2-17)20-11/h3-5,7-8,11-12,17-19H,2H2,1H3/t5-,7-,8-,11-/m1/s1
Instrument: Agilent 6530Â Q-TOF LC/MS
Instrument type: LC-ESI-QTOF
Ms type: MS2
Ion mode: POSITIVE
Ionization: ESI
Collision energy: 20
Column name: NA
Retention time: 0.200 min
Base peak: 282.12202
Precursor m/z: 282.12202
Precursor type: [M+H]+
Precursor intensity: 90.5
m/z	relative intensity
57.0372	11
133.047	14
150.074	17
282.1125	999
