Mass spectrum: Quercetin 3-galactoside; LC-ESI-QFT; MS2; CE: NCE_15_30_69;  [M-H]-
Name: Quercetin 3-galactoside
Class: NA
Formula: C21H20O12
Exact mass: 464.0955
SMILES: C1=CC(=C(C=C1C2=C(C(=O)C3=C(C=C(C=C3O2)O)O)OC4C(C(C(C(O4)CO)O)O)O)O)O
InChI: InChI=1S/C21H20O12/c22-6-13-15(27)17(29)18(30)21(32-13)33-20-16(28)14-11(26)4-8(23)5-12(14)31-19(20)7-1-2-9(24)10(25)3-7/h1-5,13,15,17-18,21-27,29-30H,6H2
Instrument: Thermo_Qexactive_Plus
Instrument type: LC-ESI-QFT
Ms type: MS2
Ion mode: NEGATIVE
Ionization: ESI
Collision energy: NCE_15_30_69
Column name: Acquity CSHC18
Retention time: 4.597 min
Base peak: 463.0889
Precursor m/z: 463.0889
Precursor type: [M-H]-
Precursor intensity: 501464100
m/z	relative intensity
70.8375	5
76.2445	5
86.1716	5
88.0453	5
107.0123	5
121.0288	6
138.9071	6
151.0028	6
163.0031	7
169.6402	7
171.1274	7
179.0012	8
180.0004	8
181.9913	9
197.4191	9
211.041	10
222.4639	10
227.0353	10
243.0288	13
254.0236	13
255.0324	13
256.0362	13
271.0219	27
272.0318	45
273.0413	54
283.0254	74
300.0269	76
301.0327	114
302.0384	462
343.043	796
463.0905	999
