Mass spectrum: CAMP; LC-ESI-QTOF; MS2; CE: 30;  [M+H]+
Name: CAMP
Class: NA
Formula: C10H12N5O6P
Exact mass: 329.05252
SMILES: C1=NC(=C2C(=N1)N(C=N2)C3C4C(C(O3)CO)OP(=O)(O4)O)N
InChI: InChI=1S/C10H12N5O6P/c11-8-5-9(13-2-12-8)15(3-14-5)10-7-6(4(1-16)19-10)20-22(17,18)21-7/h2-4,6-7,10,16H,1H2,(H,17,18)(H2,11,12,13)
Instrument: impact II
Instrument type: LC-ESI-QTOF
Ms type: MS2
Ion mode: POSITIVE
Ionization: ESI
Collision energy: 30
Column name: Acquity CSHC18
Retention time: 1.789 min
Base peak: 330.06010
Precursor m/z: 330.06010
Precursor type: [M+H]+
m/z	relative intensity
99.0554	15
136.0618	999
136.0763	34
137.0632	37
176.9944	24
312.0484	17
330.0594	53
331.2111	15
