Mass spectrum: Caffeoyl-putrescine; LC-ESI-QTOF; MS2; CE: 35eV;  [M+H]+
Name: Caffeoyl-putrescine
Class: Phenolic-polyamine conjugate
Formula: C13H18N2O3
Exact mass: 250.1317
SMILES: C1=CC(=C(C=C1/C=C/C(=O)NCCCCN)O)O
InChI: InChI=1S/C13H18N2O3/c14-7-1-2-8-15-13(18)6-4-10-3-5-11(16)12(17)9-10/h3-6,9,16-17H,1-2,7-8,14H2,(H,15,18)/b6-4+
Instrument: Impact II qTOF
Instrument type: LC-ESI-QTOF
Ms type: MS2
Ion mode: POSITIVE
Ionization: ESI
Collision energy: 35eV
Column name: Acquity CSH C18 column (particle size 1.7 μm, column length 2.1 × 50 mm) (Waters)
Retention time: 3.35 min
Base peak: 251.1388
Precursor m/z: 251.1388
Precursor type: [M+H]+
m/z	relative intensity
117.0332	102
133.0282	77
135.044	443
145.0284	233
163.0389	999
251.1388	11
