Mass spectrum: Esculin; LC-ESI-QTOF; MS2; CE: 50eV;  [M-H]-
Name: Esculin
Class: Coumarin
Formula: C15H16O9
Exact mass: 340.0794
SMILES: C1=CC(=O)OC2=CC(=C(C=C21)OC3C(C(C(C(O3)CO)O)O)O)O
InChI: InChI=1S/C15H16O9/c16-5-10-12(19)13(20)14(21)15(24-10)23-9-3-6-1-2-11(18)22-8(6)4-7(9)17/h1-4,10,12-17,19-21H,5H2
Instrument: TIMS-TOF Pro, Bruker Daltonik; Elute UHPLC System, Bruker Daltonik
Instrument type: LC-ESI-QTOF
Ms type: MS2
Ion mode: NEGATIVE
Ionization: ESI
Collision energy: 50eV
Column name: Acquity CSHC18
Retention time: 3.757 min
Base peak: 339.0678
Precursor m/z: 339.0678
Precursor type: [M-H]-
Precursor intensity: 63498.25
m/z	relative intensity
37.096	2
38.5564	2
41.0015	2
55.0729	2
59.0116	1
63.4476	2
64.6084	2
65.1303	2
66.0446	4
66.7216	2
75.1493	3
77.0391	45
78.0415	4
79.0168	6
81.0338	49
82.0361	4
89.0373	141
89.2814	3
90.0414	9
90.8451	2
91.1068	2
93.0327	30
94.1937	3
95.5097	1
96.5078	2
99.9014	2
102.0929	2
103.8931	2
104.0249	250
105.0163	310
105.3235	1
106.0367	23
107.0115	49
108.0202	4
110.0007	3
120.0206	59
121.0281	36
122.0328	3
123.0434	3
132.5875	3
132.9436	2
133.0273	939
133.2274	1
133.353	3
133.4987	1
134.0312	37
135.0316	3
139.0386	3
148.0159	77
149.0228	137
150.0254	11
159.0069	3
169.245	1
176.0086	79
176.9775	999
177.1932	5
177.3552	10
177.5495	2
177.7712	2
177.9447	1
178.0204	383
178.1993	1
178.5004	1
179.0211	13
180.2595	2
181.362	5
201.0141	2
207.3086	1
219.0251	4
339.0678	766
