Mass spectrum: 5,4'-dihydroxy-7-methoxyisoflavone; LC-ESI-QTOF; MS2; CE: 15;  [M-H]-
Name: 5,4'-dihydroxy-7-methoxyisoflavone
Class: NA
Formula: C16H12O5
Exact mass: 284.0685
SMILES: COC1=CC(=C2C(=C1)OC=C(C2=O)C3=CC=C(C=C3)O)O
InChI: InChI=1S/C16H12O5/c1-20-11-6-13(18)15-14(7-11)21-8-12(16(15)19)9-2-4-10(17)5-3-9/h2-8,17-18H,1H3
Instrument: Bruker MicrOTOF-Q
Instrument type: LC-ESI-QTOF
Ms type: MS2
Ion mode: NEGATIVE
Ionization: ESI
Collision energy: 15
Column name: Acquity CSHC18
Retention time: NA
Base peak: 283.0612
Precursor m/z: 283.0612
Precursor type: [M-H]-
m/z	relative intensity
56.3372	74
59.0024	67
62.5773	64
77.6717	75
80.8526	102
92.0641	69
98.8932	64
102.6116	108
104.3953	157
111.9316	81
122.2219	73
126.904	70
131.097	112
132.8352	105
136.3515	99
143.1714	78
144.3361	70
146.8044	93
149.3945	70
150.7688	111
152.9781	96
163.304	64
181.3784	73
196.058	113
199.5135	73
205.9472	93
207.9612	78
212.0594	116
215.245	122
216.3344	61
221.7917	70
224.9825	93
236.1073	87
239.0393	93
246.245	78
253.878	87
266.5986	70
267.0043	128
267.9851	503
269.0251	438
277.3957	64
283.0611	999
283.5364	58
284.0526	289
318.1064	105
319.9331	70
398.1406	75
465.0332	75
467.5737	61
478.1961	75
549.3036	73
583.4373	70
593.884	61
642.6259	119
660.4788	64
731.0911	102
734.8567	87
905.2679	73
957.5719	61
