Mass spectrum: HISTIDINE; LC-ESI-QTOF; MS2; CE: 10;  [M+H]+
Name: HISTIDINE
Class: NA
Formula: C6H9N3O2
Exact mass: 155.06948
SMILES: N[C@@H](CC1=CNC=N1)C(O)=O
InChI: InChI=1S/C6H9N3O2/c7-5(6(10)11)1-4-2-8-3-9-4/h2-3,5H,1,7H2,(H,8,9)(H,10,11)/t5-/m0/s1
Instrument: Agilent 6530Â Q-TOF LC/MS
Instrument type: LC-ESI-QTOF
Ms type: MS2
Ion mode: POSITIVE
Ionization: ESI
Collision energy: 10
Column name: NA
Retention time: 0.200 min
Base peak: 156.07651
Precursor m/z: 156.07651
Precursor type: [M+H]+
Precursor intensity: 145.5
m/z	relative intensity
41.0394	23
54.0389	24
56.065	24
66.0452	27
67.0409	27
68.0631	28
69.043	29
81.0661	32
82.078	32
83.1059	35
83.3581	37
83.6116	40
93.0781	45
95.0933	85
109.8243	94
110.5766	185
111.232	208
111.4489	403
111.5578	583
111.6486	788
139.0545	802
156.171	879
156.4902	999
156.6067	23
