Mass spectrum: Ornithine; LC-ESI-ITFT; MS2; CE: 30;  [M+H]+
Name: Ornithine
Class: Organic acids and derivatives; Carboxylic acids and derivatives; Amino acids, peptides, and analogues
Formula: C5H12N2O2
Exact mass: 132.08988
SMILES: NCCC[C@H](N)C(O)=O
InChI: InChI=1S/C5H12N2O2/c6-3-1-2-4(7)5(8)9/h4H,1-3,6-7H2,(H,8,9)/t4-/m0/s1
Instrument: Thermo Scientific Q-Exactive Focus
Instrument type: LC-ESI-ITFT
Ms type: MS2
Ion mode: POSITIVE
Ionization: ESI
Collision energy: 30
Column name: Acquity CSHC18
Retention time: 0.914 min
Base peak: 133.09715
Precursor m/z: 133.09715
Precursor type: [M+H]+
m/z	relative intensity
53.0392	2
64.0616	1
68.05	17
70.0657	999
74.0242	2
79.4546	1
87.6463	1
111.6632	2
131.0378	1
148.1323	1
