Mass spectrum: Dihydroquercetin; LC-ESI-QTOF; MS2; CE: 50eV;  [M+H]+
Name: Dihydroquercetin
Class: Flavanonol
Formula: C15H12O7
Exact mass: 304.0583
SMILES: C1=CC(=C(C=C1C2C(C(=O)C3=C(C=C(C=C3O2)O)O)O)O)O
InChI: InChI=1S/C15H12O7/c16-7-4-10(19)12-11(5-7)22-15(14(21)13(12)20)6-1-2-8(17)9(18)3-6/h1-5,14-19,21H
Instrument: TIMS-TOF Pro, Bruker Daltonik; Elute UHPLC System, Bruker Daltonik
Instrument type: LC-ESI-QTOF
Ms type: MS2
Ion mode: POSITIVE
Ionization: ESI
Collision energy: 50eV
Column name: Acquity CSHC18
Retention time: 5.436 min
Base peak: 305.0632
Precursor m/z: 305.0632
Precursor type: [M+H]+
Precursor intensity: 27769.38
m/z	relative intensity
65.0442	51
95.0404	67
105.0315	34
106.0404	42
120.9944	52
121.0293	85
123.0449	349
125.0222	75
137.0198	53
145.0515	18
149.0224	798
150.0254	78
153.0154	999
160.9967	51
167.0293	55
168.0562	53
189.0509	56
195.029	403
201.053	40
231.0659	657
241.0403	57
259.0589	754
260.0609	157
275.0811	45
287.0529	254
