Mass spectrum: Bergamottin; LC-ESI-ITFT; MS2; CE: 45eV;  [M+H]+
Name: Bergamottin
Class: coumarin
Formula: C21H22O4
Exact mass: 338.1518
SMILES: CC(=CCCC(=CCOC1=C2C=CC(=O)OC2=CC3=C1C=CO3)C)C
InChI: InChI=1S/C21H22O4/c1-14(2)5-4-6-15(3)9-11-24-21-16-7-8-20(22)25-19(16)13-18-17(21)10-12-23-18/h5,7-10,12-13H,4,6,11H2,1-3H3
Instrument: LTQ Orbitrap XL, Thermo Scientfic; Dionex Ultimate 300
Instrument type: LC-ESI-ITFT
Ms type: MS2
Ion mode: POSITIVE
Ionization: ESI
Collision energy: 45eV
Column name: Alltima C18
Retention time: 26.88 min
Base peak: 339.1585
Precursor m/z: 339.1585
Precursor type: [M+H]+
m/z	relative intensity
97.9694	2
135.1433	26
145.8622	10
189.126	18
200.9961	36
211.1693	23
228.9905	999
237.0497	23
239.0766	343
