Mass spectrum: Alpha-Tocopherol; ESI-TOF; MS2; CE: 6.0000000;  [M+H]+
Name: Alpha-Tocopherol
Class: NA
Formula: C29H50O2
Exact mass: 430.38108
SMILES: CC(C)CCCC(C)CCCC(C)CCCC1(C)CCC2=C(O1)C(C)=C(C)C(O)=C2C
InChI: InChI=1S/C29H50O2/c1-20(2)12-9-13-21(3)14-10-15-22(4)16-11-18-29(8)19-17-26-25(7)27(30)23(5)24(6)28(26)31-29/h20-22,30H,9-19H2,1-8H3
Instrument: waters xevo g2 TOF
Instrument type: ESI-TOF
Ms type: MS2
Ion mode: POSITIVE
Ionization: ESI
Collision energy: 6.0000000
Column name: Acquity CSHC18
Retention time: 10.351 min
Base peak: 431.38908
Precursor m/z: 431.38908
Precursor type: [M+H]+
m/z	relative intensity
69.0709	5
83.0865	4
97.102	6
111.1177	17
125.097	1
137.0967	14
140.9618	2
143.0336	7
149.0968	8
151.1123	2
152.0696	12
153.1284	2
163.1125	18
165.2035	365
166.095	401
167.0557	17
175.1122	4
201.1293	3
205.0885	11
206.0927	1
235.2074	4
254.6798	2
256.1883	4
261.1852	3
270.6909	1
275.2	3
283.3015	5
289.2528	6
303.232	3
317.2155	26
337.7271	4
338.7334	1
345.2794	2
373.3114	3
377.3807	3
382.4039	2
383.3672	9
397.3848	6
401.3418	13
402.3451	2
403.3903	3
410.3864	12
411.3628	103
412.3669	17
413.3769	58
414.3808	14
417.3722	32
418.3748	8
426.3825	3
429.4978	56
431.2867	999
