Mass spectrum: 6-PHOSPHOGLUCONATE; LC-ESI-QTOF; MS2; CE: 40;  [M-H]-
Name: 6-PHOSPHOGLUCONATE
Class: NA
Formula: C6H13O10P
Exact mass: 276.02463
SMILES: O[C@H](COP(O)(O)=O)[C@@H](O)[C@H](O)[C@@H](O)C(O)=O
InChI: InChI=1S/C6H13O10P/c7-2(1-16-17(13,14)15)3(8)4(9)5(10)6(11)12/h2-5,7-10H,1H2,(H,11,12)(H2,13,14,15)/t2-,3-,4+,5-/m1/s1
Instrument: Agilent 6530Â Q-TOF LC/MS
Instrument type: LC-ESI-QTOF
Ms type: MS2
Ion mode: NEGATIVE
Ionization: ESI
Collision energy: 40
Column name: NA
Retention time: 0.200 min
Base peak: 275.01433
Precursor m/z: 275.01433
Precursor type: [M-H]-
Precursor intensity: 174
m/z	relative intensity
78.9766	198
96.9714	999
