Mass spectrum: Citraconic acid; LC-ESI-ITFT; MS2; CE: 40;  [M-H]-
Name: Citraconic acid
Class: Lipids and lipid-like molecules; Fatty Acyls; Fatty acids and conjugates
Formula: C5H6O4
Exact mass: 130.02661
SMILES: C\C(=C\C(O)=O)C(O)=O
InChI: InChI=1S/C5H6O4/c1-3(5(8)9)2-4(6)7/h2H,1H3,(H,6,7)(H,8,9)/b3-2-
Instrument: Thermo Scientific Q-Exactive Focus
Instrument type: LC-ESI-ITFT
Ms type: MS2
Ion mode: NEGATIVE
Ionization: ESI
Collision energy: 40
Column name: Acquity CSHC18
Retention time: NA
Base peak: 129.01933
Precursor m/z: 129.01933
Precursor type: [M-H]-
m/z	relative intensity
97.6589	955
102.6687	933
103.3931	876
120.0279	941
121.7272	838
123.8189	885
124.8151	999
132.7335	992
141.8684	945
148.1497	933
