Mass spectrum: Ginsenoside F4; LC-ESI-QFT; MS2; CE: 15,30,45 (NCE);  [M+NH4]+
Name: Ginsenoside F4
Class: NA
Formula: C42H70O12
Exact mass: 766.4867
SMILES: CC1OC(OC2C(O)C(O)C(CO)OC2OC2CC3(C)C(CC(O)C4C(CCC34C)C(\\C)=C\\CC=C(C)C)C3(C)CCC(O)C(C)(C)C23)C(O)C(O)C1O
InChI: InChI=1S/C42H70O12/c1-20(2)11-10-12-21(3)23-13-16-41(8)29(23)24(44)17-27-40(7)15-14-28(45)39(5,6)36(40)25(18-42(27,41)9)52-38-35(33(49)31(47)26(19-43)53-38)54-37-34(50)32(48)30(46)22(4)51-37/h11-12,22-38,43-50H,10,13-19H2,1-9H3/b21-12+
Instrument: QE Focus, Thermo Scientfic; UPLC I-Class, Waters
Instrument type: LC-ESI-QFT
Ms type: MS2
Ion mode: POSITIVE
Ionization: ESI
Collision energy: 15,30,45 (NCE)
Column name: Acquity CSHC18
Retention time: 3.589 min
Base peak: 784.5214
Precursor m/z: 784.5214
Precursor type: [M+NH4]+
Precursor intensity: 25660370
m/z	relative intensity
83.0681	32
85.0471	62
137.1148	80
145.0756	115
147.091	129
163.13	470
205.1769	999
