Mass spectrum: PHOSPHONOACETATE; LC-ESI-QTOF; MS2; CE: 40;  [M-H]-
Name: PHOSPHONOACETATE
Class: NA
Formula: C2H5O5P
Exact mass: 139.98746
SMILES: OC(=O)CP(O)(O)=O
InChI: InChI=1S/C2H5O5P/c3-2(4)1-8(5,6)7/h1H2,(H,3,4)(H2,5,6,7)
Instrument: Agilent 6530Â Q-TOF LC/MS
Instrument type: LC-ESI-QTOF
Ms type: MS2
Ion mode: NEGATIVE
Ionization: ESI
Collision energy: 40
Column name: NA
Retention time: 0.200 min
Base peak: 138.97873
Precursor m/z: 138.97873
Precursor type: [M-H]-
Precursor intensity: 116
m/z	relative intensity
62.9738	110
76.9803	602
78.9754	999
