Mass spectrum: 3,4-Dihydroxycinnamic acid; LC-ESI-QTOF; MS2; CE: 15.00;  [M+H]+
Name: 3,4-Dihydroxycinnamic acid
Class: NA
Formula: C9H8O4
Exact mass: 180.0423
SMILES: C1=CC(=C(C=C1C=CC(=O)O)O)O
InChI: InChI=1S/C9H8O4/c10-7-3-1-6(5-8(7)11)2-4-9(12)13/h1-5,10-11H,(H,12,13)
Instrument: Bruker MicrOTOF-Q
Instrument type: LC-ESI-QTOF
Ms type: MS2
Ion mode: POSITIVE
Ionization: ESI
Collision energy: 15.00
Column name: Acquity CSHC18
Retention time: NA
Base peak: 181.0495
Precursor m/z: 181.0495
Precursor type: [M+H]+
m/z	relative intensity
117.0354	59
118.0179	10
135.0428	681
135.1597	9
136.0451	95
139.0324	11
139.099	8
139.9363	13
140.048	12
145.0277	521
146.0283	65
163.0393	999
164.0436	83
165.0413	8
177.9671	14
179.0373	30
181.0084	10
