Mass spectrum: METHYLTHIOADENOSINE; LC-ESI-QFT; MS2; CE: 30eV;  [M+H]+
Name: METHYLTHIOADENOSINE
Class: NA
Formula: C11H15N5O3S
Exact mass: 297.08956
SMILES: CSC[C@H]1O[C@H]([C@H](O)[C@@H]1O)N1C=NC2=C1N=CN=C2N
InChI: InChI=1S/C11H15N5O3S/c1-20-2-5-7(17)8(18)11(19-5)16-4-15-6-9(12)13-3-14-10(6)16/h3-5,7-8,11,17-18H,2H2,1H3,(H2,12,13,14)/t5-,7-,8-,11-/m1/s1
Instrument: Q-Exactive Orbitrap, Thermo Scientfic; Ultimate 3000 HPLC, Thermo Scientfic
Instrument type: LC-ESI-QFT
Ms type: MS2
Ion mode: POSITIVE
Ionization: ESI
Collision energy: 30eV
Column name: Acquity CSHC18
Retention time: 5.220 min
Base peak: 298.0968
Precursor m/z: 298.0968
Precursor type: [M+H]+
Precursor intensity: 141
m/z	relative intensity
61.0114	999
62.0148	8
69.0342	68
71.0134	11
74.4034	7
75.027	319
86.1313	7
91.0217	9
97.029	581
101.0343	7
103.0218	185
107.0167	28
114.7669	6
115.0394	37
117.0372	9
119.0356	16
127.0216	9
137.0591	119
137.0653	322
137.0704	16
145.032	914
145.0625	7
146.0355	9
147.0603	7
163.0426	471
164.0457	9
208.0823	8
224.1162	7
238.0756	9
298.0973	533
299.1	16
