Mass spectrum: Adenine; LC-ESI-QTOF; MS2; CE: 10;  [M+H]+
Name: Adenine
Class: NA
Formula: C5H5N5
Exact mass: 135.05450
SMILES: C1=NC2=NC=NC(=C2N1)N
InChI: InChI=1S/C5H5N5/c6-4-3-5(9-1-7-3)10-2-8-4/h1-2H,(H3,6,7,8,9,10)
Instrument: impact II
Instrument type: LC-ESI-QTOF
Ms type: MS2
Ion mode: POSITIVE
Ionization: ESI
Collision energy: 10
Column name: Acquity CSHC18
Retention time: 1.922 min
Base peak: 136.06180
Precursor m/z: 136.06180
Precursor type: [M+H]+
m/z	relative intensity
92.0245	2
94.0398	1
109.0515	1
119.035	20
119.0858	1
120.0383	1
134.1179	2
136.0616	999
136.076	88
136.1138	4
136.1452	13
136.1554	21
136.1732	4
136.2208	3
136.2647	1
136.2738	1
136.4024	1
136.4295	2
137.0451	3
137.0645	48
