Mass spectrum: L-Serine; LC-ESI-ITFT; MS2; CE: 10;  [M+H]+
Name: L-Serine
Class: Organic acids and derivatives; Carboxylic acids and derivatives; Amino acids, peptides, and analogues
Formula: C3H7NO3
Exact mass: 105.04259
SMILES: N[C@@H](CO)C(O)=O
InChI: InChI=1S/C3H7NO3/c4-2(1-5)3(6)7/h2,5H,1,4H2,(H,6,7)/t2-/m0/s1
Instrument: Thermo Scientific Q-Exactive Focus
Instrument type: LC-ESI-ITFT
Ms type: MS2
Ion mode: POSITIVE
Ionization: ESI
Collision energy: 10
Column name: Acquity CSHC18
Retention time: 0.348 min
Base peak: 106.04987
Precursor m/z: 106.04987
Precursor type: [M+H]+
m/z	relative intensity
56.9073	1
60.045	999
60.0466	3
69.2092	1
70.0292	25
88.0397	129
90.8572	1
106.0501	51
117.6928	1
119.6796	1
