Mass spectrum: L-Threonine; LC-ESI-ITFT; MS2; CE: 10;  [M+H]+
Name: L-Threonine
Class: Organic acids and derivatives; Carboxylic acids and derivatives; Amino acids, peptides, and analogues
Formula: C4H9NO3
Exact mass: 119.05824
SMILES: C[C@@H](O)[C@H](N)C(O)=O
InChI: InChI=1S/C4H9NO3/c1-2(6)3(5)4(7)8/h2-3,6H,5H2,1H3,(H,7,8)/t2-,3+/m1/s1
Instrument: Thermo Scientific Q-Exactive Focus
Instrument type: LC-ESI-ITFT
Ms type: MS2
Ion mode: POSITIVE
Ionization: ESI
Collision energy: 10
Column name: Acquity CSHC18
Retention time: 0.348 min
Base peak: 120.06552
Precursor m/z: 120.06552
Precursor type: [M+H]+
m/z	relative intensity
56.0501	499
57.0341	25
74.0605	999
82.9276	2
84.0448	44
87.5346	9
102.0552	256
120.0558	12
120.0657	75
120.0809	4
