Mass spectrum: Liquiritigenin; LC-ESI-ITFT; MS2; CE: 45eV;  [M-H]-
Name: Liquiritigenin
Class: flavonoid
Formula: C15H12O4
Exact mass: 256.0736
SMILES: C1C(OC2=C(C1=O)C=CC(=C2)O)C3=CC=C(C=C3)O
InChI: InChI=1S/C15H12O4/c16-10-3-1-9(2-4-10)14-8-13(18)12-6-5-11(17)7-15(12)19-14/h1-7,14,16-17H,8H2
Instrument: LTQ Orbitrap XL, Thermo Scientfic; Dionex Ultimate 300
Instrument type: LC-ESI-ITFT
Ms type: MS2
Ion mode: NEGATIVE
Ionization: ESI
Collision energy: 45eV
Column name: Alltima C18
Retention time: 20.36 min
Base peak: 255.0646
Precursor m/z: 255.0646
Precursor type: [M-H]-
m/z	relative intensity
92.9216	69
148.8972	999
210.2548	34
223.125	52
237.0114	152
255.0701	225
