Mass spectrum: U-44069; ESI-TOF; MS2; CE: 0.6458333;  [M+H]+
Name: U-44069
Class: NA
Formula: C21H34O4
Exact mass: 350.24571
SMILES: CCCCC[C@H](O)/C=C/[C@H]1C(CO2)CC2[C@@H]1C/C=C\CCCC(O)=O
InChI: InChI=1S/C21H34O4/c1-2-3-6-9-17(22)12-13-18-16-14-20(25-15-16)19(18)10-7-4-5-8-11-21(23)24/h4,7,12-13,16-20,22H,2-3,5-6,8-11,14-15H2,1H3,(H,23,24)/b7-4-,13-12+/t16?,17-,18-,19+,20?/m0/s1
Instrument: waters xevo g2 TOF
Instrument type: ESI-TOF
Ms type: MS2
Ion mode: POSITIVE
Ionization: ESI
Collision energy: 0.6458333
Column name: Acquity CSHC18
Retention time: 4.248 min
Base peak: 351.25371
Precursor m/z: 351.25371
Precursor type: [M+H]+
m/z	relative intensity
67.0547	74
71.0864	15
79.0548	114
81.0701	201
83.0483	30
91.0547	455
93.0699	278
95.0857	108
105.0694	479
107.0859	133
109.1027	78
115.0543	28
117.0704	512
119.087	415
121.1029	130
129.071	449
130.0763	48
131.0858	999
132.0899	96
133.1018	243
134.1077	22
135.1193	56
141.07	108
142.0792	72
143.0864	544
144.0913	79
145.1016	604
146.1054	61
147.118	86
149.1319	41
155.0866	224
156.0865	23
157.1017	45
159.1192	210
161.1337	112
165.0218	19
167.0865	72
169.1022	515
170.1041	57
171.1178	499
172.1222	67
173.097	36
175.1484	54
181.1024	254
183.1172	445
185.0708	265
186.1355	48
187.1481	164
189.1637	69
195.1169	199
199.1135	253
200.1174	45
201.1455	139
202.1533	40
203.1072	25
205.1215	48
209.1346	79
211.1492	51
213.1264	142
214.1316	49
215.1795	101
219.1378	65
223.1481	98
225.1628	23
227.1425	124
228.1469	20
231.1386	53
243.2109	49
245.1522	54
246.0315	18
253.1941	162
254.199	17
255.2106	129
285.222	123
297.2218	524
298.2251	89
303.2325	168
315.2319	956
316.236	143
333.2443	87
334.2474	17
339.2509	123
341.1784	799
352.1449	39
353.1439	16
