Mass spectrum: Quercetin; ESI-TOF; MS2; CE: 6.0000000;  [M+H]+
Name: Quercetin
Class: NA
Formula: C15H10O7
Exact mass: 302.04265
SMILES: OC1=CC(O)=C2C(=O)C(O)=C(OC2=C1)C1=CC(O)=C(O)C=C1
InChI: InChI=1S/C15H10O7/c16-7-4-10(19)12-11(5-7)22-15(14(21)13(12)20)6-1-2-8(17)9(18)3-6/h1-5,16-19,21H
Instrument: waters xevo g2 TOF
Instrument type: ESI-TOF
Ms type: MS2
Ion mode: POSITIVE
Ionization: ESI
Collision energy: 6.0000000
Column name: Acquity CSHC18
Retention time: 2.700 min
Base peak: 303.05065
Precursor m/z: 303.05065
Precursor type: [M+H]+
m/z	relative intensity
109.029	5
127.1122	1
127.9796	37
137.0238	422
138.0273	3
143.0689	1
145.0651	2
149.0236	2
153.0186	72
155.1068	1
163.0578	3
165.019	19
167.0713	6
169.0498	21
173.0805	1
181.0133	22
185.0463	8
190.5079	6
191.2257	1
193.0503	8
195.029	45
198.1482	1
199.514	8
211.0591	10
212.0628	2
223.0247	44
224.0273	2
227.0444	4
233.0792	17
247.0593	11
248.0638	1
255.1195	1
257.0448	27
258.0486	4
259.0577	8
273.0758	999
274.106	171
275.0518	128
276.0562	8
287.0551	13
299.0211	3
301.0344	148
302.039	22
303.5294	897
