Mass spectrum: 20-ethyl Prostaglandin E2; ESI-TOF; MS2; CE: 0.6458333;  [M+H]+
Name: 20-ethyl Prostaglandin E2
Class: NA
Formula: C22H36O5
Exact mass: 380.25627
SMILES: CCCCCCC[C@H](O)/C=C/[C@H]([C@H]1C/C=C\CCCC(O)=O)[C@H](O)CC1=O
InChI: InChI=1S/C22H36O5/c1-2-3-4-5-8-11-17(23)14-15-19-18(20(24)16-21(19)25)12-9-6-7-10-13-22(26)27/h6,9,14-15,17-19,21,23,25H,2-5,7-8,10-13,16H2,1H3,(H,26,27)/b9-6-,15-14+/t17-,18+,19+,21+/m0/s1
Instrument: waters xevo g2 TOF
Instrument type: ESI-TOF
Ms type: MS2
Ion mode: POSITIVE
Ionization: ESI
Collision energy: 0.6458333
Column name: Acquity CSHC18
Retention time: 4.086 min
Base peak: 381.26427
Precursor m/z: 381.26427
Precursor type: [M+H]+
m/z	relative intensity
67.0539	219
81.0702	343
91.0534	444
95.0857	369
105.0705	746
107.0845	191
109.1	227
114.9709	27
117.0705	539
119.0858	658
121.0676	149
127.1132	147
129.0699	638
131.0871	937
141.07	391
143.087	300
145.1015	889
155.0859	552
159.0804	564
161.0957	297
169.1019	649
171.1173	256
173.1312	189
179.144	27
183.1181	636
185.1328	139
187.1119	424
189.0917	27
197.1322	309
201.1284	273
206.0001	172
207.1025	27
211.1122	272
215.105	142
243.1724	205
255.2088	27
257.2251	27
261.1823	45
273.2204	312
274.0251	27
275.2374	121
281.2229	234
283.2029	260
285.2193	27
290.0949	181
291.222	276
293.2476	27
299.2384	27
304.2973	153
309.2224	862
310.2256	160
317.2481	121
318.2503	27
319.2253	27
327.1861	863
328.2359	244
331.1951	999
345.1904	383
346.2462	27
347.2527	27
363.2528	27
364.2575	27
382.2261	27
382.7274	27
383.2284	27
