Mass spectrum: Adenosine; LC-ESI-QTOF; MS2; CE: 15.00;  [M+H]+
Name: Adenosine
Class: NA
Formula: C10H13N5O4
Exact mass: 267.0968
SMILES: C1=NC(=C2C(=N1)N(C=N2)C3C(C(C(O3)CO)O)O)N
InChI: InChI=1S/C10H13N5O4/c11-8-5-9(13-2-12-8)15(3-14-5)10-7(18)6(17)4(1-16)19-10/h2-4,6-7,10,16-18H,1H2,(H2,11,12,13)
Instrument: Bruker MicrOTOF-Q
Instrument type: LC-ESI-QTOF
Ms type: MS2
Ion mode: POSITIVE
Ionization: ESI
Collision energy: 15.00
Column name: Acquity CSHC18
Retention time: NA
Base peak: 268.1040
Precursor m/z: 268.1040
Precursor type: [M+H]+
m/z	relative intensity
133.0322	4
136.0606	999
136.5225	2
137.0604	59
138.0246	3
153.0639	4
156.0762	4
162.0013	16
163.0023	6
178.1377	3
180.0149	54
182.0093	9
198.0245	39
199.0254	20
200.0278	7
202.0879	4
268.107	112
269.109	7
