Mass spectrum: RIBITOL; LC-ESI-QTOF; MS2; CE: 20;  [M-H]-
Name: RIBITOL
Class: NA
Formula: C5H12O5
Exact mass: 152.06847
SMILES: OC[C@H](O)[C@H](O)[C@H](O)CO
InChI: InChI=1S/C5H12O5/c6-1-3(8)5(10)4(9)2-7/h3-10H,1-2H2/t3-,4+,5-
Instrument: Agilent 6530Â Q-TOF LC/MS
Instrument type: LC-ESI-QTOF
Ms type: MS2
Ion mode: NEGATIVE
Ionization: ESI
Collision energy: 20
Column name: NA
Retention time: 0.200 min
Base peak: 151.05758
Precursor m/z: 151.05758
Precursor type: [M-H]-
Precursor intensity: 180
m/z	relative intensity
41.0089	164
43.0272	180
44.9978	233
55.0284	248
59.0336	366
71.0352	424
83.0142	560
89.0259	912
101.0243	999
