Mass spectrum: L-Glutamine; LC-ESI-ITFT; MS2; CE: 30;  [M-H]-
Name: L-Glutamine
Class: Organic acids and derivatives; Carboxylic acids and derivatives; Amino acids, peptides, and analogues
Formula: C5H10N2O3
Exact mass: 146.06914
SMILES: N[C@@H](CCC(N)=O)C(O)=O
InChI: InChI=1S/C5H10N2O3/c6-3(5(9)10)1-2-4(7)8/h3H,1-2,6H2,(H2,7,8)(H,9,10)/t3-/m0/s1
Instrument: Thermo Scientific Q-Exactive Focus
Instrument type: LC-ESI-ITFT
Ms type: MS2
Ion mode: NEGATIVE
Ionization: ESI
Collision energy: 30
Column name: Acquity CSHC18
Retention time: NA
Base peak: 145.06187
Precursor m/z: 145.06187
Precursor type: [M-H]-
m/z	relative intensity
58.0286	999
74.0235	365
74.2945	79
82.0286	96
84.0442	410
92.5153	236
94.3727	90
95.724	78
107.7315	82
159.8186	84
