Mass spectrum: Biochanin A; LC-ESI-ITFT; MS2; CE: 60;  [M-H]-
Name: Biochanin A
Class: Phenylpropanoids and polyketides; Isoflavonoids; O-methylated isoflavonoids
Formula: C16H12O5
Exact mass: 284.06847
SMILES: COC1=CC=C(C=C1)C1=COC2=CC(O)=CC(O)=C2C1=O
InChI: InChI=1S/C16H12O5/c1-20-11-4-2-9(3-5-11)12-8-21-14-7-10(17)6-13(18)15(14)16(12)19/h2-8,17-18H,1H3
Instrument: Thermo Scientific Q-Exactive Focus
Instrument type: LC-ESI-ITFT
Ms type: MS2
Ion mode: NEGATIVE
Ionization: ESI
Collision energy: 60
Column name: Acquity CSHC18
Retention time: 2.026 min
Base peak: 283.06119
Precursor m/z: 283.06119
Precursor type: [M-H]-
m/z	relative intensity
63.0228	439
65.0021	492
132.0205	508
155.0492	281
167.0492	999
182.0364	317
183.0442	704
195.0443	381
210.0315	381
211.0394	940
