Mass spectrum: L-Fucose; ESI-TOF; MS2; CE: 0.6458333;  [M+H]+
Name: L-Fucose
Class: NA
Formula: C6H12O5
Exact mass: 164.06847
SMILES: CC1OC(O)C(O)C(O)C1O
InChI: InChI=1S/C6H12O5/c1-2-3(7)4(8)5(9)6(10)11-2/h2-10H,1H3
Instrument: waters xevo g2 TOF
Instrument type: ESI-TOF
Ms type: MS2
Ion mode: POSITIVE
Ionization: ESI
Collision energy: 0.6458333
Column name: Acquity CSHC18
Retention time: 0.581 min
Base peak: 165.07647
Precursor m/z: 165.07647
Precursor type: [M+H]+
m/z	relative intensity
97.969	999
113.9643	3
126.9474	115
137.9876	3
143.9594	3
144.9592	66
152.0013	3
154.968	3
187.0577	346
188.0607	3
199.9767	3
217.9886	3
242.0103	3
245.9839	3
259.9972	3
265.0013	3
278.0095	3
292.0246	3
317.0825	3
346.0372	3
351.127	3
