Mass spectrum: Malondialdehyde; LC-ESI-ITFT; MS2; CE: 60;  [M+H]+
Name: Malondialdehyde
Class: Organic oxygen compounds; Organooxygen compounds; Carbonyl compounds
Formula: C3H4O2
Exact mass: 72.02113
SMILES: O=CCC=O
InChI: InChI=1S/C3H4O2/c4-2-1-3-5/h2-3H,1H2
Instrument: Thermo Scientific Q-Exactive Focus
Instrument type: LC-ESI-ITFT
Ms type: MS2
Ion mode: POSITIVE
Ionization: ESI
Collision energy: 60
Column name: Acquity CSHC18
Retention time: 2.014 min
Base peak: 73.02841
Precursor m/z: 73.02841
Precursor type: [M+H]+
m/z	relative intensity
56.5194	866
57.6326	999
58.7579	883
59.1496	751
63.5018	861
67.0763	734
69.8415	905
73.3048	760
77.4056	736
82.9645	865
