Mass spectrum: Akuammicine; ESI-QTOF; MS2; CE: 30 eV;  [M+H]+
Name: Akuammicine
Class: NA
Formula: C20H22N2O2
Exact mass: 322.1681
SMILES: CC(=C1CN2CCC34C5=CC=CC=C5NC4=C(C1(CC32[H])[H])C(=O)OC)[H]
InChI: InChI=1S/C20H22N2O2/c1-3-12-11-22-9-8-20-14-6-4-5-7-15(14)21-18(20)17(19(23)24-2)13(12)10-16(20)22/h3-7,13,16,21H,8-11H2,1-2H3
Instrument: Synapt (HDMS 1st gen)
Instrument type: ESI-QTOF
Ms type: MS2
Ion mode: POSITIVE
Ionization: ESI
Collision energy: 30 eV
Column name: Acquity CSHC18
Retention time: 12.388 min
Base peak: 323.1768
Precursor m/z: 323.1768
Precursor type: [M+H]+
Precursor intensity: 5374.61
m/z	relative intensity
263.1567	21
291.1495	257
292.1532	366
323.1709	999
