Mass spectrum: Ayapin; LC-ESI-ITFT; MS2; CE: 45eV;  [M+H]+
Name: Ayapin
Class: coumarin
Formula: C10H6O4
Exact mass: 190.0266
SMILES: C1OC2=C(O1)C=C3C(=C2)C=CC(=O)O3
InChI: InChI=1S/C10H6O4/c11-10-2-1-6-3-8-9(13-5-12-8)4-7(6)14-10/h1-4H,5H2
Instrument: LTQ Orbitrap XL, Thermo Scientfic; Dionex Ultimate 300
Instrument type: LC-ESI-ITFT
Ms type: MS2
Ion mode: POSITIVE
Ionization: ESI
Collision energy: 45eV
Column name: Alltima C18
Retention time: 18.53 min
Base peak: 191.0332
Precursor m/z: 191.0332
Precursor type: [M+H]+
m/z	relative intensity
78.9293	3
102.8951	2
116.8903	21
128.926	30
144.8678	114
160.9474	7
162.905	999
188.9661	12
