Mass spectrum: 3-Methylhistidine; LC-ESI-ITFT; MS2; CE: 60;  [M+H]+
Name: 3-Methylhistidine
Class: Organic acids and derivatives; Carboxylic acids and derivatives; Amino acids, peptides, and analogues
Formula: C7H11N3O2
Exact mass: 169.08513
SMILES: CN1C=NC=C1C[C@H](N)C(O)=O
InChI: InChI=1S/C7H11N3O2/c1-10-4-9-3-5(10)2-6(8)7(11)12/h3-4,6H,2,8H2,1H3,(H,11,12)/t6-/m0/s1
Instrument: Thermo Scientific Q-Exactive Focus
Instrument type: LC-ESI-ITFT
Ms type: MS2
Ion mode: POSITIVE
Ionization: ESI
Collision energy: 60
Column name: Acquity CSHC18
Retention time: 2.014 min
Base peak: 170.09241
Precursor m/z: 170.09241
Precursor type: [M+H]+
m/z	relative intensity
54.0344	658
55.0422	37
56.0499	65
67.042	44
68.0499	652
81.045	244
85.3093	16
95.0606	999
96.0684	60
159.1466	19
