Mass spectrum: Azelaic acid; LC-ESI-ITFT; MS2; CE: 30;  [M-H]-
Name: Azelaic acid
Class: Lipids and lipid-like molecules; Fatty Acyls; Fatty acids and conjugates
Formula: C9H16O4
Exact mass: 188.10486
SMILES: OC(=O)CCCCCCCC(O)=O
InChI: InChI=1S/C9H16O4/c10-8(11)6-4-2-1-3-5-7-9(12)13/h1-7H2,(H,10,11)(H,12,13)
Instrument: Thermo Scientific Q-Exactive Focus
Instrument type: LC-ESI-ITFT
Ms type: MS2
Ion mode: NEGATIVE
Ionization: ESI
Collision energy: 30
Column name: Acquity CSHC18
Retention time: 0.925 min
Base peak: 187.09758
Precursor m/z: 187.09758
Precursor type: [M-H]-
m/z	relative intensity
57.0334	376
93.1956	67
95.0491	328
97.0647	999
123.0804	459
125.096	447
144.0686	76
170.8734	62
184.6897	63
187.3557	69
