Mass spectrum: Histamine; ESI-TOF; MS2; CE: 6.0000000;  [M+H]+
Name: Histamine
Class: NA
Formula: C5H9N3
Exact mass: 111.07965
SMILES: NCCC1=CNC=N1
InChI: InChI=1S/C5H9N3/c6-2-1-5-3-7-4-8-5/h3-4H,1-2,6H2,(H,7,8)
Instrument: waters xevo g2 TOF
Instrument type: ESI-TOF
Ms type: MS2
Ion mode: POSITIVE
Ionization: ESI
Collision energy: 6.0000000
Column name: Acquity CSHC18
Retention time: 0.447 min
Base peak: 112.08765
Precursor m/z: 112.08765
Precursor type: [M+H]+
m/z	relative intensity
83.0607	2
95.0609	108
96.0633	2
112.087	999
113.0903	58
113.9641	49
113.9642	45
135.9925	8
136.0872	8
137.9878	214
173.98	5
178.1241	5
194.1205	2
204.1249	5
327.0906	5
