Mass spectrum: shikonin; LC-ESI-ITFT; MS2; CE: 0.3;  [M-H]-
Name: shikonin
Class: naphthoquinone derivatives
Formula: C16H16O5
Exact mass: 288.0998
SMILES: CC(=CCC(C1=CC(=O)C2=C(C=CC(=C2C1=O)O)O)O)C
InChI: InChI=1S/C16H16O5/c1-8(2)3-4-10(17)9-7-13(20)14-11(18)5-6-12(19)15(14)16(9)21/h3,5-7,10,17-19H,4H2,1-2H3
Instrument: LTQ-Orbitrap XL hybrid mass spectrometer (Thermo Scientific)
Instrument type: LC-ESI-ITFT
Ms type: MS2
Ion mode: NEGATIVE
Ionization: ESI
Collision energy: 0.3
Column name: Acquity CSHC18
Retention time: 13.321 min
Base peak: 287.0927
Precursor m/z: 287.0927
Precursor type: [M-H]-
Precursor intensity: 12609650
m/z	relative intensity
65.9505	2
67.8158	2
71.8116	4
71.813	2
73.8585	2
85.2	1
88.9918	2
90.2946	2
93.1281	2
94.0638	2
107.8279	1
152.8698	1
167.7657	2
181.5667	1
190.0273	7
194.4921	1
194.5141	1
196.1287	6
215.7073	2
215.8902	2
216.6281	6
217.0922	6
217.1048	2
217.2773	3
217.9729	1
217.9747	2
218.0067	6
218.0089	6
218.0115	7
218.0152	5
218.0223	999
218.0307	9
218.0333	5
218.0357	6
218.9582	5
219.4296	4
219.9003	2
232.9245	4
287.2471	8
287.2622	2
287.2684	3
