Mass spectrum: Demissidine; APCI-ITFT; MS2; CE: 35 CID;  [M+H]+
Name: Demissidine
Class: NA
Formula: C27H45NO
Exact mass: 399.35012
SMILES: CC1CCC2C(C3C(N2C1)CC4C3(CCC5C4CCC6C5(CCC(C6)O)C)C)C
InChI: InChI=1S/C27H45NO/c1-16-5-8-23-17(2)25-24(28(23)15-16)14-22-20-7-6-18-13-19(29)9-11-26(18,3)21(20)10-12-27(22,25)4/h16-25,29H,5-15H2,1-4H3
Instrument: Orbitrap Elite
Instrument type: APCI-ITFT
Ms type: MS2
Ion mode: POSITIVE
Ionization: APCI
Collision energy: 35 CID
Column name: Acquity CSHC18
Retention time: 0.062 min
Base peak: 400.35660
Precursor m/z: 400.35660
Precursor type: [M+H]+
Precursor intensity: 3583727000
m/z	relative intensity
115.1225	1
119.0868	1
120.2446	1
126.1282	5
131.0862	2
133.1015	1
145.1017	5
145.3735	1
147.1174	5
150.3682	1
158.5601	1
159.1172	4
161.1331	23
163.1489	1
165.7736	1
167.1939	1
170.9392	1
172.2988	1
173.1323	4
185.1345	2
187.1481	1
199.1493	4
213.1659	1
214.106	1
255.211	15
263.2628	1
273.2265	3
300.7006	1
326.606	1
361.6192	1
382.3512	2
390.7759	1
399.3465	4
400.3094	44
400.3574	999
