Mass spectrum: L-Phenylalanine; ESI-TOF; MS2; CE: 0.6458333;  [M+H]+
Name: L-Phenylalanine
Class: NA
Formula: C9H11NO2
Exact mass: 165.07898
SMILES: NC(CC1=CC=CC=C1)C(O)=O
InChI: InChI=1S/C9H11NO2/c10-8(9(11)12)6-7-4-2-1-3-5-7/h1-5,8H,6,10H2,(H,11,12)
Instrument: waters xevo g2 TOF
Instrument type: ESI-TOF
Ms type: MS2
Ion mode: POSITIVE
Ionization: ESI
Collision energy: 0.6458333
Column name: Acquity CSHC18
Retention time: 1.349 min
Base peak: 166.08698
Precursor m/z: 166.08698
Precursor type: [M+H]+
m/z	relative intensity
77.0394	86
77.0399	85
79.0551	27
79.0556	15
91.0551	41
91.0555	47
103.0549	501
103.0552	495
104.0582	47
104.0585	25
107.05	15
120.0815	999
120.0818	754
121.0846	24
121.085	38
172.8625	5
172.8633	8
175.0086	8
175.0088	6
