Mass spectrum: Naringenin; LC-ESI-ITFT; MS2; CE: 45eV;  [M+H]+
Name: Naringenin
Class: Flavonoid
Formula: C15H12O5
Exact mass: 272.0685
SMILES: C1C(OC2=CC(=CC(=C2C1=O)O)O)C3=CC=C(C=C3)O
InChI: InChI=1S/C15H12O5/c16-9-3-1-8(2-4-9)13-7-12(19)15-11(18)5-10(17)6-14(15)20-13/h1-6,13,16-18H,7H2
Instrument: LTQ Orbitrap XL, Thermo Scientfic; Dionex Ultimate 300
Instrument type: LC-ESI-ITFT
Ms type: MS2
Ion mode: POSITIVE
Ionization: ESI
Collision energy: 45eV
Column name: Alltima C18
Retention time: 16.51 min
Base peak: 273.0753
Precursor m/z: 273.0753
Precursor type: [M+H]+
m/z	relative intensity
110.911	3
146.958	999
170.9109	5
227.0431	2
245.0144	3
