Mass spectrum: H-Ile-Ile-OH; LC-ESI-QTOF; MS2; CE: 15.00;  [M-H]-
Name: H-Ile-Ile-OH
Class: NA
Formula: C12H24N2O3
Exact mass: 244.1787
SMILES: CCC(C)C(C(=O)NC(C(C)CC)C(=O)O)N
InChI: InChI=1S/C12H24N2O3/c1-5-7(3)9(13)11(15)14-10(12(16)17)8(4)6-2/h7-10H,5-6,13H2,1-4H3,(H,14,15)(H,16,17)
Instrument: Bruker MicrOTOF-Q
Instrument type: LC-ESI-QTOF
Ms type: MS2
Ion mode: NEGATIVE
Ionization: ESI
Collision energy: 15.00
Column name: Acquity CSHC18
Retention time: NA
Base peak: 243.1714
Precursor m/z: 243.1714
Precursor type: [M-H]-
m/z	relative intensity
130.09	185
199.18	999
200.18	123
243.17	349
