Mass spectrum: Sorbitol; ESI-TOF; MS2; CE: 6.0000000;  [M+H]+
Name: Sorbitol
Class: NA
Formula: C6H14O6
Exact mass: 182.07904
SMILES: OCC(O)C(O)C(O)C(O)CO
InChI: InChI=1S/C6H14O6/c7-1-3(9)5(11)6(12)4(10)2-8/h3-12H,1-2H2
Instrument: waters xevo g2 TOF
Instrument type: ESI-TOF
Ms type: MS2
Ion mode: POSITIVE
Ionization: ESI
Collision energy: 6.0000000
Column name: Acquity CSHC18
Retention time: 0.560 min
Base peak: 183.08704
Precursor m/z: 183.08704
Precursor type: [M+H]+
m/z	relative intensity
69.0348	97
71.0495	6
73.0295	6
83.0501	196
84.0531	7
85.0296	68
87.0453	7
99.045	94
101.0606	7
103.1316	2
111.0448	502
112.0348	38
113.059	2
114.9715	14
115.9586	2
127.0409	3
129.0532	999
130.0585	65
131.0595	6
131.5345	17
132.027	1
147.0637	387
148.0696	28
156.0376	25
164.0228	6
173.9617	72
174.9691	16
183.0872	448
184.0908	30
