Mass spectrum: Bilobetin; LC-ESI-QFT; MS2; CE: 15,30,45 (NCE);  [2M+H]+
Name: Bilobetin
Class: NA
Formula: C31H20O10
Exact mass: 552.1056
SMILES: COC1=C(C=C(C=C1)C1=CC(=O)C2=C(O)C=C(O)C=C2O1)C1=C2OC(=CC(=O)C2=C(O)C=C1O)C1=CC=C(O)C=C1
InChI: InChI=1S/C31H20O10/c1-39-24-7-4-15(26-12-22(37)29-19(34)9-17(33)10-27(29)40-26)8-18(24)28-20(35)11-21(36)30-23(38)13-25(41-31(28)30)14-2-5-16(32)6-3-14/h2-13,32-36H,1H3
Instrument: QE Focus, Thermo Scientfic; UPLC I-Class, Waters
Instrument type: LC-ESI-QFT
Ms type: MS2
Ion mode: POSITIVE
Ionization: ESI
Collision energy: 15,30,45 (NCE)
Column name: Acquity CSHC18
Retention time: 3.073 min
Base peak: 1105.2190
Precursor m/z: 1105.2190
Precursor type: [2M+H]+
Precursor intensity: 4706250
m/z	relative intensity
87.875	1
107.6133	1
115.2394	1
116.5342	1
121.0286	118
123.4193	1
145.0289	2
153.018	5
164.1023	1
181.7993	1
187.8837	1
225.6863	1
245.1045	1
283.0611	1
297.0764	7
321.0756	2
375.0459	2
376.058	3
401.1	19
402.0336	1
403.0442	13
417.0597	10
418.0682	13
420.0466	2
435.0709	10
436.1233	1
480.0853	1
511.1012	3
521.0865	57
553.1124	999
576.2734	1
761.3088	1
999.4482	3
