Mass spectrum: DEOXYCYTIDINE MONOPHOSPHATE; LC-ESI-QFT; MS2; CE: 30eV;  [M-H]-
Name: DEOXYCYTIDINE MONOPHOSPHATE
Class: NA
Formula: C9H14N3O7P
Exact mass: 307.05694
SMILES: NC1=NC(=O)N(C=C1)[C@H]1C[C@H](O)[C@@H](COP(O)(O)=O)O1
InChI: InChI=1S/C9H14N3O7P/c10-7-1-2-12(9(14)11-7)8-3-5(13)6(19-8)4-18-20(15,16)17/h1-2,5-6,8,13H,3-4H2,(H2,10,11,14)(H2,15,16,17)/t5-,6+,8+/m0/s1
Instrument: Q-Exactive Orbitrap, Thermo Scientfic; Ultimate 3000 HPLC, Thermo Scientfic
Instrument type: LC-ESI-QFT
Ms type: MS2
Ion mode: NEGATIVE
Ionization: ESI
Collision energy: 30eV
Column name: Acquity CSHC18
Retention time: 0.668 min
Base peak: 306.0497
Precursor m/z: 306.0497
Precursor type: [M-H]-
Precursor intensity: 126
m/z	relative intensity
50.4249	1
62.9624	3
66.813	1
67.0286	12
96.968	999
105.1001	1
110.0344	485
111.0378	8
144.9442	4
146.9371	3
150.9789	25
161.8927	3
162.1115	2
162.8922	3
172.8822	3
176.9947	307
177.9982	13
195.0054	956
196.0088	31
212.0322	3
212.6865	2
215.8645	3
216.8724	2
245.0329	11
263.0437	46
265.0474	2
306.0496	295
307.0529	14
310.5536	2
326.2561	3
