Mass spectrum: N6-Acetyl-L-lysine; ESI-TOF; MS2; CE: 6.0000000;  [M+H]+
Name: N6-Acetyl-L-lysine
Class: NA
Formula: C8H16N2O3
Exact mass: 188.11609
SMILES: CC(=O)NCCCCC(N)C(O)=O
InChI: InChI=1S/C8H16N2O3/c1-6(11)10-5-3-2-4-7(9)8(12)13/h7H,2-5,9H2,1H3,(H,10,11)(H,12,13)
Instrument: waters xevo g2 TOF
Instrument type: ESI-TOF
Ms type: MS2
Ion mode: POSITIVE
Ionization: ESI
Collision energy: 6.0000000
Column name: Acquity CSHC18
Retention time: 0.565 min
Base peak: 189.12409
Precursor m/z: 189.12409
Precursor type: [M+H]+
m/z	relative intensity
84.0817	425
85.0849	24
97.9694	19
99.97	8
102.1285	6
112.0231	2
114.9708	6
115.9665	1
126.0922	999
127.0952	84
128.0978	4
129.1027	4
130.0871	4
131.0085	1
131.957	2
139.9653	8
140.9847	8
141.9593	163
143.0419	18
144.0307	14
145.9561	8
147.1134	16
147.9539	1
149.9615	5
159.9778	5
160.9917	1
161.9712	1
166.0847	5
178.1252	2
182.986	15
184.9868	10
189.1241	880
190.1271	95
191.0235	5
