Mass spectrum: THEOPHYLLINE; LC-ESI-QTOF; MS2; CE: 40;  [M-H]-
Name: THEOPHYLLINE
Class: NA
Formula: C7H8N4O2
Exact mass: 180.06473
SMILES: CN1C2=C(NC=N2)C(=O)N(C)C1=O
InChI: InChI=1S/C7H8N4O2/c1-10-5-4(8-3-9-5)6(12)11(2)7(10)13/h3H,1-2H3,(H,8,9)
Instrument: Agilent 6530Â Q-TOF LC/MS
Instrument type: LC-ESI-QTOF
Ms type: MS2
Ion mode: NEGATIVE
Ionization: ESI
Collision energy: 40
Column name: NA
Retention time: 0.200 min
Base peak: 179.06062
Precursor m/z: 179.06062
Precursor type: [M-H]-
Precursor intensity: 179
m/z	relative intensity
40.0157	132
42.006	150
55.0325	173
64.0072	215
65.0205	217
66.0162	233
67.0335	233
79.0326	269
92.03	275
94.0461	339
107.0225	396
122.0412	668
135.0304	999
