Mass spectrum: Pyridoxine; LC-ESI-ITFT; MS2; CE: 10;  [M-H]-
Name: Pyridoxine
Class: Organoheterocyclic compounds; Pyridines and derivatives; Pyridoxines
Formula: C8H11NO3
Exact mass: 169.07389
SMILES: CC1=C(O)C(CO)=C(CO)C=N1
InChI: InChI=1S/C8H11NO3/c1-5-8(12)7(4-11)6(3-10)2-9-5/h2,10-12H,3-4H2,1H3
Instrument: Thermo Scientific Q-Exactive Focus
Instrument type: LC-ESI-ITFT
Ms type: MS2
Ion mode: NEGATIVE
Ionization: ESI
Collision energy: 10
Column name: Acquity CSHC18
Retention time: 0.360 min
Base peak: 168.06662
Precursor m/z: 168.06662
Precursor type: [M-H]-
m/z	relative intensity
107.0364	10
108.0443	45
110.06	2
121.0522	29
122.06	269
135.0314	14
138.055	136
150.055	999
166.05	235
168.0657	371
