Mass spectrum: D-+ - Raffinose; LC-ESI-QTOF; MS2; CE: 36.47;  [M-H]-
Name: D-+ - Raffinose
Class: NA
Formula: C18H32O16
Exact mass: 504.1690
SMILES: C(C1C(C(C(C(O1)OCC2C(C(C(C(O2)OC3(C(C(C(O3)CO)O)O)CO)O)O)O)O)O)O)O
InChI: InChI=1S/C18H32O16/c19-1-5-8(22)11(25)13(27)16(31-5)30-3-7-9(23)12(26)14(28)17(32-7)34-18(4-21)15(29)10(24)6(2-20)33-18/h5-17,19-29H,1-4H2
Instrument: Bruker MicrOTOF-Q
Instrument type: LC-ESI-QTOF
Ms type: MS2
Ion mode: NEGATIVE
Ionization: ESI
Collision energy: 36.47
Column name: Acquity CSHC18
Retention time: NA
Base peak: 503.1617
Precursor m/z: 503.1617
Precursor type: [M-H]-
m/z	relative intensity
89.0209	50
101.0206	38
113.0237	50
119.0444	21
161.0473	36
179.0631	46
220.6967	14
221.0664	999
222.0738	64
223.0641	15
