Mass spectrum: Quercetagetin 4'-methyl ether; LC-ESI-QTOF; MS2; CE: 50eV;  [M-H]-
Name: Quercetagetin 4'-methyl ether
Class: Flavonol
Formula: C16H12O8
Exact mass: 332.0532
SMILES: COC1=C(C=C(C=C1)C2=C(C(=O)C3=C(O2)C=C(C(=C3O)O)O)O)O
InChI: InChI=1S/C16H12O8/c1-23-9-3-2-6(4-7(9)17)16-15(22)14(21)11-10(24-16)5-8(18)12(19)13(11)20/h2-5,17-20,22H,1H3
Instrument: TIMS-TOF Pro, Bruker Daltonik; Elute UHPLC System, Bruker Daltonik
Instrument type: LC-ESI-QTOF
Ms type: MS2
Ion mode: NEGATIVE
Ionization: ESI
Collision energy: 50eV
Column name: Acquity CSHC18
Retention time: 6.540 min
Base peak: 331.0402
Precursor m/z: 331.0402
Precursor type: [M-H]-
Precursor intensity: 84128.56
m/z	relative intensity
39.9442	4
41.0025	7
41.7785	2
65.0016	24
66.0046	21
67.0179	4
68.9969	5
74.0323	2
80.0259	2
82.0042	147
82.6366	2
83.0125	5
94.0034	6
95.0136	13
96.0198	8
99.0123	3
108.0227	10
108.9901	6
109.9982	328
110.528	3
111.0076	234
112.01	19
113.2986	3
115.9403	3
120.0179	2
121.9986	4
123.0073	28
123.3678	2
123.6955	2
124.986	7
129.0338	2
132.0204	4
136.9868	9
137.9925	40
139.0019	208
140.0038	17
143.0482	2
146.0337	4
147.0415	3
149.3217	3
151.0026	9
152.0099	5
153.0361	3
157.775	2
158.0345	3
159.694	3
160.7677	6
165.4008	5
165.9894	52
166.2577	3
166.9944	18
167.9698	3
169.964	4
171.7943	4
173.5056	6
175.0375	2
178.996	13
191.9336	3
214.0253	3
216.0415	3
227.026	3
230.0174	3
231.03	4
259.0191	3
270.0094	3
288.0191	4
300.6975	3
304.0424	3
315.8028	3
315.9402	4
316.0158	333
316.2036	3
316.428	2
316.5205	6
316.7731	3
316.8657	3
316.9583	3
317.0201	122
318.0259	10
327.8092	2
330.8164	4
331.0402	999
331.1951	3
331.4017	3
331.4879	3
