Mass spectrum: maltopentaose; LC-ESI-QTOF; MS2; CE: -10, -35, -60V;  [M-H]-
Name: maltopentaose
Class: NA
Formula: C30H52O26
Exact mass: 828.2747
SMILES: C(C1C(C(C(C(O1)OC2C(OC(C(C2O)O)OC3C(OC(C(C3O)O)OC4C(OC(C(C4O)O)OC5C(OC(C(C5O)O)O)CO)CO)CO)CO)O)O)O)O
InChI: InChI=1S/C30H52O26/c31-1-6-11(36)12(37)18(43)27(49-6)54-23-8(3-33)51-29(20(45)14(23)39)56-25-10(5-35)52-30(21(46)16(25)41)55-24-9(4-34)50-28(19(44)15(24)40)53-22-7(2-32)48-26(47)17(42)13(22)38/h6-47H,1-5H2
Instrument: TripleToF 5600; Sciex
Instrument type: LC-ESI-QTOF
Ms type: MS2
Ion mode: NEGATIVE
Ionization: ESI
Collision energy: -10, -35, -60V
Column name: Acquity CSHC18
Retention time: 0.693 min
Base peak: 827.2596
Precursor m/z: 827.2596
Precursor type: [M-H]-
Precursor intensity: 86030.75
m/z	relative intensity
71.012	13
73.0245	31
73.0293	31
81.0362	6
85.0298	2
89.0262	36
97.0298	31
101.026	99
113.0297	18
115.0405	10
119.0368	22
143.0327	53
144.0373	4
157.0163	3
157.0234	3
159.0321	7
161.0464	498
162.0547	56
163.0554	7
179.0593	247
180.0599	22
185.0395	6
221.0695	178
222.0697	14
223.0784	4
263.0815	80
264.0783	12
281.0892	113
317.0781	5
317.1007	5
341.1066	231
342.1189	31
343.1196	11
365.1085	13
383.1216	267
384.1225	46
425.1337	108
426.1413	20
427.1297	8
443.1445	74
444.1435	15
503.1638	171
504.168	38
505.1669	14
545.1816	259
546.1807	69
547.1642	16
587.1794	107
588.1752	22
588.1958	27
605.1842	45
665.1694	20
665.2204	405
666.2329	106
667.228	37
668.2201	10
707.2408	118
708.236	42
709.2242	7
749.2415	27
767.2534	39
825.2267	6
826.2407	3
827.2758	999
