Mass spectrum: Glyoxylic acid; LC-ESI-ITFT; MS2; CE: 30;  [M-H]-
Name: Glyoxylic acid
Class: Organic acids and derivatives; Carboxylic acids and derivatives; Carboxylic acids
Formula: C2H2O3
Exact mass: 74.00039
SMILES: OC(=O)C=O
InChI: InChI=1S/C2H2O3/c3-1-2(4)5/h1H,(H,4,5)
Instrument: Thermo Scientific Q-Exactive Focus
Instrument type: LC-ESI-ITFT
Ms type: MS2
Ion mode: NEGATIVE
Ionization: ESI
Collision energy: 30
Column name: Acquity CSHC18
Retention time: 0.927 min
Base peak: 72.99312
Precursor m/z: 72.99312
Precursor type: [M-H]-
m/z	relative intensity
59.2893	937
61.6778	880
63.7461	863
69.8718	855
69.8728	897
71.3793	925
76.3363	860
77.3874	999
84.5463	847
85.8814	878
