Mass spectrum: Adenosine monophosphate; LC-ESI-ITFT; MS2; CE: 10;  [M-H]-
Name: Adenosine monophosphate
Class: Nucleosides, nucleotides, and analogues; Purine nucleotides; Purine ribonucleotides
Formula: C10H14N5O7P
Exact mass: 347.06308
SMILES: NC1=C2N=CN([C@@H]3O[C@H](COP(O)(O)=O)[C@@H](O)[C@H]3O)C2=NC=N1
InChI: InChI=1S/C10H14N5O7P/c11-8-5-9(13-2-12-8)15(3-14-5)10-7(17)6(16)4(22-10)1-21-23(18,19)20/h2-4,6-7,10,16-17H,1H2,(H2,11,12,13)(H2,18,19,20)/t4-,6-,7-,10-/m1/s1
Instrument: Thermo Scientific Q-Exactive Focus
Instrument type: LC-ESI-ITFT
Ms type: MS2
Ion mode: NEGATIVE
Ionization: ESI
Collision energy: 10
Column name: Acquity CSHC18
Retention time: 0.360 min
Base peak: 346.05582
Precursor m/z: 346.05582
Precursor type: [M-H]-
m/z	relative intensity
78.9578	179
78.959	2
96.9684	48
134.046	8
138.9791	1
150.9791	6
192.9898	3
211.0006	26
346.0554	999
