Mass spectrum: Hypotaurine; LC-ESI-ITFT; MS2; CE: 10;  [M+H]+
Name: Hypotaurine
Class: Organic acids and derivatives; Sulfinic acids and derivatives; Sulfinic acids
Formula: C2H7NO2S
Exact mass: 109.01975
SMILES: NCCS(O)=O
InChI: InChI=1S/C2H7NO2S/c3-1-2-6(4)5/h1-3H2,(H,4,5)
Instrument: Thermo Scientific Q-Exactive Focus
Instrument type: LC-ESI-ITFT
Ms type: MS2
Ion mode: POSITIVE
Ionization: ESI
Collision energy: 10
Column name: Acquity CSHC18
Retention time: 0.243 min
Base peak: 110.02703
Precursor m/z: 110.02703
Precursor type: [M+H]+
m/z	relative intensity
74.0063	12
75.6497	6
87.0044	41
88.2172	7
92.0168	999
96.0096	6
98.8075	5
99.4028	5
110.0272	735
113.9638	9
