Mass spectrum: Isoeugenol; ESI-TOF; MS2; CE: 6.0000000;  [M+H]+
Name: Isoeugenol
Class: NA
Formula: C10H12O2
Exact mass: 164.08373
SMILES: COC1=CC(C=CC)=CC=C1O
InChI: InChI=1S/C10H12O2/c1-3-4-8-5-6-9(11)10(7-8)12-2/h3-7,11H,1-2H3
Instrument: waters xevo g2 TOF
Instrument type: ESI-TOF
Ms type: MS2
Ion mode: POSITIVE
Ionization: ESI
Collision energy: 6.0000000
Column name: Acquity CSHC18
Retention time: 3.158 min
Base peak: 165.09173
Precursor m/z: 165.09173
Precursor type: [M+H]+
m/z	relative intensity
79.0554	3
84.9614	2
91.0552	1
95.0501	1
96.9619	9
103.0552	11
105.0708	130
106.0742	11
107.05	146
108.0537	10
109.0656	17
111.0336	1
115.0403	2
117.0706	10
121.0655	35
122.0703	3
124.0527	14
125.9866	9
131.0501	54
132.0559	7
133.0282	233
134.0199	26
135.081	35
135.5386	14
136.0852	2
137.0606	570
138.0641	61
139.0257	2
140.5474	2
143.0685	8
145.0656	19
147.045	10
148.0188	9
150.0333	19
151.0762	213
152.0795	22
153.0557	6
159.0357	1
161.0445	5
162.068	7
163.0414	496
164.083	410
165.0914	999
166.095	116
167.0365	14
168.0734	2
169.0426	5
171.0813	78
172.0857	9
175.0658	4
175.5466	1
176.0323	2
176.5539	44
177.034	17
178.0476	3
179.0711	9
181.0772	21
182.0902	13
183.0731	3
183.5587	1
184.066	78
184.5672	18
185.0803	2
185.5592	28
186.0346	67
187.0072	1
188.0497	30
189.0552	14
189.5551	5
191.0761	16
191.5465	5
192.0549	1
193.0874	33
193.5725	11
194.1025	2
195.072	69
196.1055	15
196.5906	4
197.0677	38
197.5693	3
199.0687	4
200.0799	4
202.0628	1
203.0733	404
203.5715	10
204.0494	54
204.5793	111
205.0979	32
205.5813	2
206.0763	1
211.5596	1
212.5775	1
213.5843	3
217.0857	81
218.088	9
219.0562	3
220.0555	4
221.0854	20
222.0659	3
224.0538	2
225.1064	1
226.0708	1
231.0398	1
232.041	3
236.0545	3
238.0804	1
243.0195	3
244.0656	1
245.0143	54
246.0671	14
246.5679	3
247.0507	3
249.0164	8
254.0694	1
257.111	3
258.0433	1
260.0376	26
261.0421	6
263.1075	8
264.0595	23
264.5958	2
265.095	131
265.6012	43
266.0997	27
266.6078	7
267.1387	9
268.1426	1
271.0971	1
274.1048	4
277.1223	2
280.1083	3
280.6077	1
281.104	8
282.105	2
284.1048	2
285.6139	2
286.1172	1
287.1109	3
295.0253	1
296.1374	24
297.0774	1
298.1209	10
309.1496	5
313.1434	7
314.1454	1
326.152	95
327.3755	897
328.1635	557
329.1669	81
330.1682	7
333.1641	2
335.5907	1
343.132	4
345.1702	20
346.1347	56
346.635	23
347.1272	7
348.0892	1
349.0986	587
350.114	116
351.1187	15
352.0968	1
353.0884	8
355.1397	18
355.6416	7
359.2093	6
360.1894	2
362.1479	39
362.648	8
363.1098	3
363.6502	1
365.1081	34
366.1203	9
367.1076	155
368.1119	23
371.1056	4
372.1539	1
373.2477	9
378.1274	3
378.6612	4
380.1238	4
381.124	725
382.1293	157
383.127	20
384.1202	11
385.1574	1
394.0892	3
395.0933	2
397.1006	12
399.1033	5
403.1474	1
409.1496	17
409.6461	4
410.1528	3
411.1439	1
413.1059	6
414.1082	1
415.1078	4
417.1135	4
417.6309	1
418.1219	3
418.6503	1
419.1255	1
422.086	3
425.1785	7
427.0859	15
429.1161	1
431.1327	11
432.1377	2
453.177	239
454.1796	58
460.1164	2
470.202	8
473.1453	53
474.1496	14
475.1585	332
476.1619	88
477.1632	18
478.1652	2
489.2285	98
490.2315	29
491.1828	9
492.1368	1
495.1264	57
496.13	15
497.1341	2
507.1665	1
509.1546	2
510.0103	2
511.2096	15
512.2156	17
513.2195	8
515.2028	5
521.1939	5
522.2567	3
525.2244	1
528.1869	1
529.1944	12
539.1293	1
541.1681	2
542.1539	1
543.1958	8
544.1988	13
545.204	23
546.2097	4
547.1683	5
553.1004	4
554.114	1
575.259	3
576.2275	2
577.1898	11
578.1881	3
653.3109	23
654.3166	9
655.2642	1
671.1809	4
672.177	1
673.193	1
675.2891	90
676.2978	39
677.2822	4
679.2856	1
691.202	1
693.3018	11
694.3042	2
707.2739	27
708.2776	12
709.2416	2
723.2891	1
725.2873	1
726.2451	2
739.3014	19
740.3474	16
741.3051	3
742.2577	1
743.3036	3
745.2531	1
753.2367	1
758.2615	1
771.2845	4
821.2817	1
853.3013	2
