Mass spectrum: Dimethylglycine; ESI-TOF; MS2; CE: 0.6458333;  [M+H]+
Name: Dimethylglycine
Class: NA
Formula: C4H9NO2
Exact mass: 103.06333
SMILES: CN(C)CC(O)=O
InChI: InChI=1S/C4H9NO2/c1-5(2)3-4(6)7/h3H2,1-2H3,(H,6,7)
Instrument: waters xevo g2 TOF
Instrument type: ESI-TOF
Ms type: MS2
Ion mode: POSITIVE
Ionization: ESI
Collision energy: 0.6458333
Column name: Acquity CSHC18
Retention time: 0.531 min
Base peak: 104.07133
Precursor m/z: 104.07133
Precursor type: [M+H]+
m/z	relative intensity
58.066	1
95.9736	58
97.9695	999
98.9626	211
99.9701	1
101.9652	1
104.0714	38
105.0745	1
109.9675	1
117.9799	1
122.082	1
124.0382	8
126.0529	1
139.9642	1
142.0192	33
142.956	1
143.9602	1
147.9941	51
151.923	40
156.0033	8
158.0037	1
159.9698	1
160.9888	14
162.9949	1
172.0661	47
172.9777	1
188.0251	1
188.9671	1
200.8622	7
202.8753	13
203.997	1
215.0495	44
216.057	49
217.0638	77
230.8884	1
235.8709	1
245.0814	58
246.8626	24
258.8865	1
260.0474	9
261.0537	134
267.0641	21
283.036	131
284.0385	1
285.033	1
287.8926	1
317.1246	1
319.1192	1
334.1563	1
341.1033	1
348.1439	1
351.0252	6
354.9644	20
356.1361	1
363.1101	1
364.1156	1
370.1275	1
385.0932	1
386.0897	4
392.1048	8
402.0654	22
408.0799	1
408.7897	1
417.0264	11
457.0206	25
537.0964	1
543.0828	44
559.0813	1
582.065	10
770.1881	1
