Mass spectrum: Benzoic acid; LC-ESI-QTOF; MS2; CE: 10;  [M-H]-
Name: Benzoic acid
Class: NA
Formula: C7H6O2
Exact mass: 122.0368
SMILES: C1=CC=C(C=C1)C(=O)O
InChI: InChI=1S/C7H6O2/c8-7(9)6-4-2-1-3-5-6/h1-5H,(H,8,9)
Instrument: impact II
Instrument type: LC-ESI-QTOF
Ms type: MS2
Ion mode: NEGATIVE
Ionization: ESI
Collision energy: 10
Column name: Acquity CSHC18
Retention time: 1.690 min
Base peak: 121.0294
Precursor m/z: 121.0294
Precursor type: [M-H]-
m/z	relative intensity
77.0401	790
78.0345	93
93.035	233
121.0287	999
122.0327	183
