Mass spectrum: N-ACETYLGLUTAMATE; LC-ESI-QTOF; MS2; CE: 10;  [M-H]-
Name: N-ACETYLGLUTAMATE
Class: NA
Formula: C7H11NO5
Exact mass: 189.06372
SMILES: CC(=O)NC(CCC(O)=O)C(O)=O
InChI: InChI=1S/C7H11NO5/c1-4(9)8-5(7(12)13)2-3-6(10)11/h5H,2-3H2,1H3,(H,8,9)(H,10,11)(H,12,13)
Instrument: Agilent 6530Â Q-TOF LC/MS
Instrument type: LC-ESI-QTOF
Ms type: MS2
Ion mode: NEGATIVE
Ionization: ESI
Collision energy: 10
Column name: NA
Retention time: 0.200 min
Base peak: 188.05653
Precursor m/z: 188.05653
Precursor type: [M-H]-
Precursor intensity: 151
m/z	relative intensity
41.0022	135
41.9977	141
54.0383	143
58.0341	172
59.0234	252
100.0828	265
102.0718	289
126.0525	344
128.053	357
144.0732	565
146.0451	612
170.0527	947
188.0723	999
