Mass spectrum: Acetylglycine; LC-ESI-ITFT; MS2; CE: 20;  [M+H]+
Name: Acetylglycine
Class: Organic acids and derivatives; Carboxylic acids and derivatives; Amino acids, peptides, and analogues
Formula: C4H7NO3
Exact mass: 117.04259
SMILES: CC(=O)NCC(O)=O
InChI: InChI=1S/C4H7NO3/c1-3(6)5-2-4(7)8/h2H2,1H3,(H,5,6)(H,7,8)
Instrument: Thermo Scientific Q-Exactive Focus
Instrument type: LC-ESI-ITFT
Ms type: MS2
Ion mode: POSITIVE
Ionization: ESI
Collision energy: 20
Column name: Acquity CSHC18
Retention time: 0.630 min
Base peak: 118.04987
Precursor m/z: 118.04987
Precursor type: [M+H]+
m/z	relative intensity
67.6486	20
76.0398	999
85.4165	21
90.8405	22
91.3694	20
92.5243	37
94.0778	20
115.9549	20
117.3729	22
126.1168	22
