Mass spectrum: Daidzein; ESI-TOF; MS2; CE: 6.0000000;  [M+H]+
Name: Daidzein
Class: NA
Formula: C15H10O4
Exact mass: 254.05791
SMILES: OC1=CC=C(C=C1)C1=COC2=C(C=CC(O)=C2)C1=O
InChI: InChI=1S/C15H10O4/c16-10-3-1-9(2-4-10)13-8-19-14-7-11(17)5-6-12(14)15(13)18/h1-8,16-17H
Instrument: waters xevo g2 TOF
Instrument type: ESI-TOF
Ms type: MS2
Ion mode: POSITIVE
Ionization: ESI
Collision energy: 6.0000000
Column name: Acquity CSHC18
Retention time: 2.684 min
Base peak: 255.06591
Precursor m/z: 255.06591
Precursor type: [M+H]+
m/z	relative intensity
113.9646	14
121.0186	1
128.0212	11
137.024	3
138.008	7
139.034	1
149.0137	5
151.0557	1
163.0396	6
167.5243	2
176.5295	2
179.035	1
188.0595	2
193.0511	16
194.0543	1
237.0551	4
255.5709	999
257.0263	92
258.0735	28
259.0585	21
260.072	1
261.0748	2
274.04	26
274.542	6
277.0476	499
278.0511	49
279.0256	6
282.0262	13
282.5284	3
289.0724	1
293.0172	15
311.0197	1
325.1287	9
326.1335	1
339.0186	11
342.1557	4
347.111	38
348.1137	7
349.1174	1
353.9839	4
354.9902	10
355.9948	1
357.0314	1
358.9873	1
363.0841	2
371.1298	3
386.0086	9
387.076	1
393.0803	5
393.5813	4
394.0815	2
400.0627	1
401.0686	70
401.5722	59
402.0721	16
402.5722	3
403.0679	4
403.5663	1
408.5577	2
409.0552	17
409.5565	8
410.0551	2
429.066	1
507.1077	24
508.111	4
509.1226	5
510.1264	1
515.1319	3
516.1349	1
528.0973	5
528.5972	2
529.0932	1
531.1053	19
532.1092	9
533.1126	1
555.0567	1
563.0432	5
564.0456	2
565.0438	20
566.0461	6
567.0409	10
568.0422	1
569.0764	1
593.0761	18
594.0678	10
608.0419	15
609.0452	3
681.5818	2
682.0845	3
682.5851	1
689.5703	1
805.1483	2
806.1473	1
808.1427	1
817.0975	2
818.0995	1
848.1163	2
849.1225	1
862.0954	1
1041.1963	2
1068.1466	1
1069.1496	1
1070.1488	36
1071.1517	23
1072.1532	6
1073.1559	1
