Mass spectrum: 5-Aminolevulinic acid; ESI-TOF; MS2; CE: 0.6458333;  [M+H]+
Name: 5-Aminolevulinic acid
Class: NA
Formula: C5H9NO3
Exact mass: 131.05824
SMILES: NCC(=O)CCC(O)=O
InChI: InChI=1S/C5H9NO3/c6-3-4(7)1-2-5(8)9/h1-3,6H2,(H,8,9)
Instrument: waters xevo g2 TOF
Instrument type: ESI-TOF
Ms type: MS2
Ion mode: POSITIVE
Ionization: ESI
Collision energy: 0.6458333
Column name: Acquity CSHC18
Retention time: 0.506 min
Base peak: 132.06624
Precursor m/z: 132.06624
Precursor type: [M+H]+
m/z	relative intensity
68.05	69
72.0632	2
86.0607	999
87.064	2
91.0549	43
92.9015	21
100.9921	161
102.9521	26
108.9624	2
113.0788	2
113.9643	143
116.06	2
123.1158	32
124.9565	2
129.8814	72
131.9824	56
132.9556	2
133.9291	2
135.9291	2
140.9635	2
142.9638	29
145.018	199
146.0817	2
152.0035	59
158.0032	2
158.97	15
161.9919	2
162.9913	2
164.9843	2
167.9745	70
170.864	22
172.8633	129
173.9841	2
174.9571	2
192.0496	2
194.1152	2
195.9945	2
201.0084	2
205.9871	2
206.961	44
213.8876	36
217.1051	2
230.9837	2
235.8699	2
241.8848	2
244.8686	2
246.8624	64
248.8599	2
255.9696	2
263.8672	2
299.0347	2
301.0713	2
302.1956	2
316.0356	2
317.0414	2
318.0455	2
319.0422	2
321.0419	2
338.0174	2
339.0268	2
441.3348	2
469.0815	2
491.0569	12
