Mass spectrum: ChenoDeoxyCholicAcid; LC-ESI-QTOF; MS2; CE: 60;  [M-2H2O+H]+
Name: ChenoDeoxyCholicAcid
Class: NA
Formula: C24H40O4
Exact mass: 392.29266
SMILES: CC(CCC(=O)O)C1CCC2C1(CCC3C2C(CC4C3(CCC(C4)O)C)O)C
InChI: InChI=1S/C24H40O4/c1-14(4-7-21(27)28)17-5-6-18-22-19(9-11-24(17,18)3)23(2)10-8-16(25)12-15(23)13-20(22)26/h14-20,22,25-26H,4-13H2,1-3H3,(H,27,28)
Instrument: impact II
Instrument type: LC-ESI-QTOF
Ms type: MS2
Ion mode: POSITIVE
Ionization: ESI
Collision energy: 60
Column name: Acquity CSHC18
Retention time: 1.796 min
Base peak: 357.27820
Precursor m/z: 357.27820
Precursor type: [M-2H2O+H]+
m/z	relative intensity
55.0548	130
67.0551	141
69.0705	146
77.0388	155
79.0547	176
81.0704	195
91.0545	201
93.0702	203
95.086	205
105.0701	211
107.0858	349
109.1015	399
117.0702	454
119.0857	465
121.1014	513
131.0857	543
133.1015	612
135.1171	634
145.1014	706
147.1172	779
159.1172	999
