Mass spectrum: Phenylpyruvic acid; LC-ESI-ITFT; MS2; CE: 20;  [M-H]-
Name: Phenylpyruvic acid
Class: Benzenoids; Benzene and substituted derivatives; Phenylpyruvic acid derivatives
Formula: C9H8O3
Exact mass: 164.04734
SMILES: OC(=O)C(=O)CC1=CC=CC=C1
InChI: InChI=1S/C9H8O3/c10-8(9(11)12)6-7-4-2-1-3-5-7/h1-5H,6H2,(H,11,12)
Instrument: Thermo Scientific Q-Exactive Focus
Instrument type: LC-ESI-ITFT
Ms type: MS2
Ion mode: NEGATIVE
Ionization: ESI
Collision energy: 20
Column name: Acquity CSHC18
Retention time: 0.644 min
Base peak: 163.04007
Precursor m/z: 163.04007
Precursor type: [M-H]-
m/z	relative intensity
59.4114	16
84.502	16
86.0834	16
86.3635	16
91.0541	999
92.5151	33
126.9304	15
145.4148	16
151.1851	15
152.1214	15
