Mass spectrum: L-Methionine; LC-ESI-ITFT; MS2; CE: 40;  [M+H]+
Name: L-Methionine
Class: Organic acids and derivatives; Carboxylic acids and derivatives; Amino acids, peptides, and analogues
Formula: C5H11NO2S
Exact mass: 149.05105
SMILES: CSCC[C@H](N)C(O)=O
InChI: InChI=1S/C5H11NO2S/c1-9-3-2-4(6)5(7)8/h4H,2-3,6H2,1H3,(H,7,8)/t4-/m0/s1
Instrument: Thermo Scientific Q-Exactive Focus
Instrument type: LC-ESI-ITFT
Ms type: MS2
Ion mode: POSITIVE
Ionization: ESI
Collision energy: 40
Column name: Acquity CSHC18
Retention time: 1.464 min
Base peak: 150.05833
Precursor m/z: 150.05833
Precursor type: [M+H]+
m/z	relative intensity
56.0501	512
61.0112	999
72.0033	34
84.0997	9
90.5367	9
134.0965	20
135.1043	10
141.7274	9
154.8749	9
154.9942	9
