Mass spectrum: 15(R)-15-methyl Prostaglandin A2; ESI-TOF; MS2; CE: 0.6458333;  [M+H]+
Name: 15(R)-15-methyl Prostaglandin A2
Class: NA
Formula: C21H32O4
Exact mass: 348.23006
SMILES: O=C1[C@H](C/C=C\CCCC(O)=O)[C@@H](/C=C/[C@](C)(O)CCCCC)C=C1
InChI: InChI=1S/C21H32O4/c1-3-4-9-15-21(2,25)16-14-17-12-13-19(22)18(17)10-7-5-6-8-11-20(23)24/h5,7,12-14,16-18,25H,3-4,6,8-11,15H2,1-2H3,(H,23,24)/b7-5-,16-14+/t17-,18-,21-/m1/s1
Instrument: waters xevo g2 TOF
Instrument type: ESI-TOF
Ms type: MS2
Ion mode: POSITIVE
Ionization: ESI
Collision energy: 0.6458333
Column name: Acquity CSHC18
Retention time: 4.058 min
Base peak: 349.23806
Precursor m/z: 349.23806
Precursor type: [M+H]+
m/z	relative intensity
69.0688	26
79.0536	58
81.0703	141
93.0704	101
97.0658	54
105.0712	250
107.0871	90
109.1037	32
115.0573	19
117.0713	131
119.0858	161
121.0656	51
123.0814	123
129.0705	132
130.0763	23
131.0865	309
133.0657	132
135.0818	45
141.0698	51
142.0769	19
143.0864	179
144.0592	12
145.0839	141
149.1329	25
153.0704	29
155.0863	179
156.0923	21
157.1011	92
158.074	165
159.0818	999
160.085	86
161.097	141
167.0877	40
168.0925	19
169.1026	172
170.1074	23
171.0799	30
173.097	227
174.0989	23
175.15	23
179.0857	75
181.1038	27
183.1006	41
185.0963	102
186.1025	21
189.1104	14
196.1224	12
197.096	90
198.1035	13
199.1496	43
201.1284	46
203.1453	42
211.1481	87
213.1271	12
215.1078	26
217.1575	124
220.1261	19
221.1313	82
223.1104	16
224.1074	21
225.1285	92
226.133	19
227.0549	19
229.1594	742
230.1625	93
238.1371	18
243.1194	40
267.2119	54
277.1948	58
285.2218	20
295.2053	141
304.3009	16
313.1696	167
314.2204	83
315.1288	36
331.2271	40
332.2303	8
337.2387	26
