Mass spectrum: ADENOSINE; LC-ESI-QFT; MS2; CE: 30eV;  [M-H]-
Name: ADENOSINE
Class: NA
Formula: C10H13N5O4
Exact mass: 267.09675
SMILES: NC1=NC=NC2=C1N=CN2[C@@H]1O[C@H](CO)[C@@H](O)[C@H]1O
InChI: InChI=1S/C10H13N5O4/c11-8-5-9(13-2-12-8)15(3-14-5)10-7(18)6(17)4(1-16)19-10/h2-4,6-7,10,16-18H,1H2,(H2,11,12,13)/t4-,6-,7-,10-/m1/s1
Instrument: Q-Exactive Orbitrap, Thermo Scientfic; Ultimate 3000 HPLC, Thermo Scientfic
Instrument type: LC-ESI-QFT
Ms type: MS2
Ion mode: NEGATIVE
Ionization: ESI
Collision energy: 30eV
Column name: Acquity CSHC18
Retention time: 1.150 min
Base peak: 266.0895
Precursor m/z: 266.0895
Precursor type: [M-H]-
Precursor intensity: 102
m/z	relative intensity
52.5525	2
55.8281	2
57.6979	3
67.4684	2
72.633	3
82.1377	2
83.4954	3
90.4124	2
99.0804	3
99.8037	3
107.0346	6
110.0681	3
110.8885	3
114.5938	3
118.5282	3
123.9325	3
123.9917	3
126.7116	3
134.0458	999
134.5737	2
135.0429	15
135.0491	28
141.1238	3
162.5271	3
166.6541	3
192.8737	4
208.9276	3
212.0708	3
219.8447	5
234.3318	3
265.4227	3
266.0896	23
