Mass spectrum: Piperine; LC-ESI-QTOF; MS2; CE: 15.00;  [M+H]+
Name: Piperine
Class: NA
Formula: C17H19NO3
Exact mass: 285.1365
SMILES: C1CCN(CC1)C(=O)C=CC=CC2=CC3=C(C=C2)OCO3
InChI: InChI=1S/C17H19NO3/c19-17(18-10-4-1-5-11-18)7-3-2-6-14-8-9-15-16(12-14)21-13-20-15/h2-3,6-9,12H,1,4-5,10-11,13H2
Instrument: Bruker MicrOTOF-Q
Instrument type: LC-ESI-QTOF
Ms type: MS2
Ion mode: POSITIVE
Ionization: ESI
Collision energy: 15.00
Column name: Acquity CSHC18
Retention time: NA
Base peak: 286.1438
Precursor m/z: 286.1438
Precursor type: [M+H]+
m/z	relative intensity
135.0435	36
171.0443	39
173.06	60
201.0564	139
202.0583	144
286.145	779
287.1476	999
