Mass spectrum: Quercitrin; LC-ESI-QFT; MS2; CE: 15,30,45 (NCE);  [M+H]+
Name: Quercitrin
Class: NA
Formula: C21H20O11
Exact mass: 448.1006
SMILES: CC1OC(OC2=C(OC3=CC(O)=CC(O)=C3C2=O)C2=CC(O)=C(O)C=C2)C(O)C(O)C1O
InChI: InChI=1S/C21H20O11/c1-7-15(26)17(28)18(29)21(30-7)32-20-16(27)14-12(25)5-9(22)6-13(14)31-19(20)8-2-3-10(23)11(24)4-8/h2-7,15,17-18,21-26,28-29H,1H3
Instrument: QE Focus, Thermo Scientfic; UPLC I-Class, Waters
Instrument type: LC-ESI-QFT
Ms type: MS2
Ion mode: POSITIVE
Ionization: ESI
Collision energy: 15,30,45 (NCE)
Column name: Acquity CSHC18
Retention time: 1.627 min
Base peak: 449.1076
Precursor m/z: 449.1076
Precursor type: [M+H]+
Precursor intensity: 186727900
m/z	relative intensity
57.0342	19
71.05	217
73.0289	3
85.0291	201
87.0441	4
93.7621	4
113.9982	4
124.5742	3
129.0547	76
137.0239	3
146.6695	4
147.0654	6
153.0189	4
165.0186	5
199.509	3
202.1457	4
220.8772	4
229.0485	14
257.0445	5
303.0498	999
314.3202	4
350.626	4
356.319	4
