Mass spectrum: D-Fructose; ESI-TOF; MS2; CE: 0.6458333;  [M+H]+
Name: D-Fructose
Class: NA
Formula: C6H12O6
Exact mass: 180.06339
SMILES: OCC1OC(O)(CO)C(O)C1O
InChI: InChI=1S/C6H12O6/c7-1-3-4(9)5(10)6(11,2-8)12-3/h3-5,7-11H,1-2H2
Instrument: waters xevo g2 TOF
Instrument type: ESI-TOF
Ms type: MS2
Ion mode: POSITIVE
Ionization: ESI
Collision energy: 0.6458333
Column name: Acquity CSHC18
Retention time: 0.563 min
Base peak: 181.07139
Precursor m/z: 181.07139
Precursor type: [M+H]+
m/z	relative intensity
85.0291	9
98.9756	214
99.0444	9
114.9481	249
121.0396	9
127.0395	188
139.9561	328
145.0504	9
168.9589	325
180.0868	9
185.9609	869
186.969	999
187.079	9
197.9614	343
198.0989	9
200.0452	9
203.0535	848
204.0562	9
209.9624	522
215.9704	117
216.9787	9
233.9833	186
234.9882	9
239.972	132
243.9669	9
250.9534	9
258.0055	9
275.9976	9
280.9959	9
290.0787	9
295.0121	9
306.0045	9
307.0139	9
322.0177	9
324.0142	241
325.0189	9
383.1177	112
385.0926	9
414.047	9
415.0532	9
