Mass spectrum: 4-PYRIDOXATE; LC-ESI-QTOF; MS2; CE: 20;  [M+H]+
Name: 4-PYRIDOXATE
Class: NA
Formula: C8H9NO4
Exact mass: 183.0532
SMILES: CC1=NC=C(CO)C(C(O)=O)=C1O
InChI: InChI=1S/C8H9NO4/c1-4-7(11)6(8(12)13)5(3-10)2-9-4/h2,10-11H,3H2,1H3,(H,12,13)
Instrument: Agilent 6530Â Q-TOF LC/MS
Instrument type: LC-ESI-QTOF
Ms type: MS2
Ion mode: POSITIVE
Ionization: ESI
Collision energy: 20
Column name: NA
Retention time: 0.200 min
Base peak: 184.06097
Precursor m/z: 184.06097
Precursor type: [M+H]+
Precursor intensity: 128.5
m/z	relative intensity
51.0239	16
65.04	17
67.0459	17
75.0242	17
80.0518	18
82.0643	20
92.0513	21
93.0346	29
110.0605	83
120.048	105
122.0235	107
138.0563	182
148.0408	228
166.0511	999
