Mass spectrum: PANTOTHENATE; LC-ESI-QFT; MS2; CE: 30eV;  [M-H]-
Name: PANTOTHENATE
Class: NA
Formula: C9H17NO5
Exact mass: 219.11067
SMILES: CC(C)(CO)C(O)C(=O)NCCC(O)=O
InChI: InChI=1S/C9H17NO5/c1-9(2,5-11)7(14)8(15)10-4-3-6(12)13/h7,11,14H,3-5H2,1-2H3,(H,10,15)(H,12,13)
Instrument: Q-Exactive Orbitrap, Thermo Scientfic; Ultimate 3000 HPLC, Thermo Scientfic
Instrument type: LC-ESI-QFT
Ms type: MS2
Ion mode: NEGATIVE
Ionization: ESI
Collision energy: 30eV
Column name: Acquity CSHC18
Retention time: 2.681 min
Base peak: 218.1034
Precursor m/z: 218.1034
Precursor type: [M-H]-
Precursor intensity: 144
m/z	relative intensity
50.4528	1
50.7577	1
52.879	1
54.704	1
55.6642	1
57.8588	1
59.0122	8
67.7491	1
71.0122	112
71.0467	2
71.0486	52
72.0074	1
72.0519	1
72.6203	1
76.5007	1
77.7605	1
78.0847	1
88.0387	999
89.0359	1
89.0421	21
98.0593	1
99.0435	12
99.7219	1
99.9242	1
114.9256	1
116.0338	9
116.0701	11
123.0797	1
124.0946	1
127.8687	61
128.8766	2
129.0541	7
130.446	1
137.8975	1
140.7839	1
142.6006	1
146.0808	603
147.0782	2
147.084	28
159.025	1
172.8663	2
185.4783	1
218.1026	177
219.1063	16
231.1866	1
