Mass spectrum: DIHYDROOROTATE; LC-ESI-QTOF; MS2; CE: 40;  [M-H]-
Name: DIHYDROOROTATE
Class: NA
Formula: C5H6N2O4
Exact mass: 158.03276
SMILES: OC(=O)C1CC(=O)NC(=O)N1
InChI: InChI=1S/C5H6N2O4/c8-3-1-2(4(9)10)6-5(11)7-3/h2H,1H2,(H,9,10)(H2,6,7,8,11)
Instrument: Agilent 6530Â Q-TOF LC/MS
Instrument type: LC-ESI-QTOF
Ms type: MS2
Ion mode: NEGATIVE
Ionization: ESI
Collision energy: 40
Column name: NA
Retention time: 0.200 min
Base peak: 157.02864
Precursor m/z: 157.02864
Precursor type: [M-H]-
Precursor intensity: 197
m/z	relative intensity
42.0159	999
