Mass spectrum: Piperine; LC-ESI-QTOF; MS2; CE: 50eV;  [M+H]+
Name: Piperine
Class: Piperidine alkaloid
Formula: C17H19NO3
Exact mass: 285.1365
SMILES: C1CCN(CC1)C(=O)C=CC=CC2=CC3=C(C=C2)OCO3
InChI: InChI=1S/C17H19NO3/c19-17(18-10-4-1-5-11-18)7-3-2-6-14-8-9-15-16(12-14)21-13-20-15/h2-3,6-9,12H,1,4-5,10-11,13H2
Instrument: TIMS-TOF Pro, Bruker Daltonik; Elute UHPLC System, Bruker Daltonik
Instrument type: LC-ESI-QTOF
Ms type: MS2
Ion mode: POSITIVE
Ionization: ESI
Collision energy: 50eV
Column name: Acquity CSHC18
Retention time: 9.361 min
Base peak: 286.1423
Precursor m/z: 286.1423
Precursor type: [M+H]+
Precursor intensity: 4773221
m/z	relative intensity
22.5153	3
35.1732	2
41.0374	6
45.685	4
51.0182	5
57.1401	4
65.0378	2
77.0355	2
81.678	2
84.08	3
93.0677	2
103.0539	7
112.0625	3
112.0759	20
115.0346	12
115.0534	281
115.6737	4
116.0562	16
117.0703	7
122.0368	2
131.0504	7
135.0435	154
135.9392	4
136.0484	8
137.4195	4
143.0482	49
144.052	5
147.0552	1
150.0915	13
151.1001	15
153.0468	2
159.0419	15
171.0435	35
173.0581	25
176.1567	3
201.0237	13
201.0372	36
201.053	999
201.4784	5
202.0576	90
209.78	1
215.1034	4
218.1157	5
258.148	2
286.0913	8
286.1423	548
