Mass spectrum: L-GULONOLACTONE; LC-ESI-QTOF; MS2; CE: 10;  [M-H]-
Name: L-GULONOLACTONE
Class: NA
Formula: C6H10O6
Exact mass: 178.04774
SMILES: C(C(C1C(C(C(=O)O1)O)O)O)O
InChI: InChI=1S/C6H10O6/c7-1-2(8)5-3(9)4(10)6(11)12-5/h2-5,7-10H,1H2
Instrument: Agilent 6530Â Q-TOF LC/MS
Instrument type: LC-ESI-QTOF
Ms type: MS2
Ion mode: NEGATIVE
Ionization: ESI
Collision energy: 10
Column name: NA
Retention time: 0.200 min
Base peak: 177.03770
Precursor m/z: 177.03770
Precursor type: [M-H]-
Precursor intensity: 110
m/z	relative intensity
41.0016	113
43.0178	114
44.9958	130
51.0225	136
57.0394	148
59.0336	155
71.0232	163
75.009	202
85.0301	255
89.0287	267
99.0115	275
111.006	332
129.0232	384
177.053	999
