Mass spectrum: L-Glutamic acid; ESI-TOF; MS2; CE: 6.0000000;  [M+H]+
Name: L-Glutamic acid
Class: NA
Formula: C5H9NO4
Exact mass: 147.05316
SMILES: NC(CCC(O)=O)C(O)=O
InChI: InChI=1S/C5H9NO4/c6-3(5(9)10)1-2-4(7)8/h3H,1-2,6H2,(H,7,8)(H,9,10)
Instrument: waters xevo g2 TOF
Instrument type: ESI-TOF
Ms type: MS2
Ion mode: POSITIVE
Ionization: ESI
Collision energy: 6.0000000
Column name: Acquity CSHC18
Retention time: 0.535 min
Base peak: 148.06116
Precursor m/z: 148.06116
Precursor type: [M+H]+
m/z	relative intensity
84.0456	143
85.039	8
100.9576	3
102.0557	93
102.1287	25
108.9619	3
111.9703	13
113.9649	316
125.0852	1
130.0512	999
130.9679	7
131.0538	67
132.0551	8
136.0629	1
138.9905	10
139.9648	46
145.0189	17
148.0613	613
149.0643	36
152.0007	1
154.9909	9
160.9908	13
162.0774	3
163.976	11
177.981	1
180.9911	3
186.0073	5
194.1191	5
198.9959	2
202.9896	2
209.933	2
217.105	15
227.0359	1
235.8716	2
260.8835	2
264.8756	1
284.9128	1
289.8902	2
301.906	1
349.0281	1
