Mass spectrum: quercetin 3,7,3'-trimethylether; LC-ESI-ITFT; MS2; CE: 0.3;  [M+H]+
Name: quercetin 3,7,3'-trimethylether
Class: flavonols
Formula: C18H16O7
Exact mass: 344.0896
SMILES: COC1=CC(=C2C(=C1)OC(=C(C2=O)OC)C3=CC(=C(C=C3)O)OC)O
InChI: InChI=1S/C18H16O7/c1-22-10-7-12(20)15-14(8-10)25-17(18(24-3)16(15)21)9-4-5-11(19)13(6-9)23-2/h4-8,19-20H,1-3H3
Instrument: LTQ-Orbitrap XL hybrid mass spectrometer (Thermo Scientific)
Instrument type: LC-ESI-ITFT
Ms type: MS2
Ion mode: POSITIVE
Ionization: ESI
Collision energy: 0.3
Column name: Acquity CSHC18
Retention time: 12.029 min
Base peak: 345.0955
Precursor m/z: 345.0955
Precursor type: [M+H]+
Precursor intensity: 13477050
m/z	relative intensity
87.4976	2
90.4379	2
91.0072	1
95.402	2
96.2013	1
100.4451	2
103.7246	2
109.9798	2
112.305	3
117.181	2
117.9245	2
122.469	2
124.6369	2
126.2915	2
127.9004	2
132.0022	2
134.4165	2
141.4781	2
142.4854	2
142.632	2
145.5793	2
158.9887	2
160.5068	3
161.5619	2
168.4553	2
170.8763	2
170.9606	2
171.0492	2
177.1993	2
177.7678	2
179.1405	3
179.6756	3
185.9811	2
188.6213	3
193.5046	2
200.0546	3
200.4025	3
201.4099	2
204.3309	3
209.6036	3
209.648	3
216.6708	2
218.6607	3
221.2754	3
224.0413	2
224.2944	3
226.7216	2
232.8261	3
236.678	3
237.6514	3
238.7814	3
239.9821	3
241.7718	3
244.1151	3
248.2843	3
250.7926	3
255.3909	4
257.7044	3
261.0813	3
265.5394	4
267.3021	3
268.0522	3
272.6039	3
275.2135	3
281.9002	3
282.9803	3
283.8016	3
284.8415	3
285.3924	3
286.6515	3
290.3329	2
293.7242	3
298.7609	3
302.0753	7
302.2409	4
302.4248	3
303.8072	3
304.137	3
304.1873	3
304.3863	3
306.0996	3
313.0691	5
315.6284	3
316.9367	3
317.7379	4
318.0967	3
318.1469	3
320.015	3
322.7034	3
325.402	3
327.2209	3
328.2454	3
329.9379	5
329.992	5
330.0724	999
330.1553	5
330.1726	3
331.0759	19
335.5705	3
336.3443	3
343.1429	5
344.3002	4
345.0964	6
