Mass spectrum: 8-(Methylsulfinyl)octyl isothiocyanate; LC-ESI-QTOF; MS2; CE: 15.00;  [M-O+H]+
Name: 8-(Methylsulfinyl)octyl isothiocyanate
Class: NA
Formula: C10H19NOS2
Exact mass: 233.0908
SMILES: CS(=O)CCCCCCCCN=C=S
InChI: InChI=1S/C10H19NOS2/c1-14(12)9-7-5-3-2-4-6-8-11-10-13/h2-9H2,1H3
Instrument: Bruker MicrOTOF-Q
Instrument type: LC-ESI-QTOF
Ms type: MS2
Ion mode: POSITIVE
Ionization: ESI
Collision energy: 15.00
Column name: Acquity CSHC18
Retention time: NA
Base peak: 218.1032
Precursor m/z: 218.1032
Precursor type: [M-O+H]+
m/z	relative intensity
87.97	109
102.03	286
108.08	130
109.09	219
114.04	182
123.12	140
128.05	151
135.93	187
136.11	146
136.92	135
137.13	328
142.07	167
159.11	140
170.1	999
171.11	146
175.11	193
202.14	114
