Mass spectrum: GLUCOSAMINATE; LC-ESI-QTOF; MS2; CE: 40;  [M+H]+
Name: GLUCOSAMINATE
Class: NA
Formula: C6H13NO6
Exact mass: 195.07429
SMILES: C(C(C(C(C(C(=O)O)N)O)O)O)O
InChI: InChI=1S/C6H13NO6/c7-3(6(12)13)5(11)4(10)2(9)1-8/h2-5,8-11H,1,7H2,(H,12,13)
Instrument: Agilent 6530Â Q-TOF LC/MS
Instrument type: LC-ESI-QTOF
Ms type: MS2
Ion mode: POSITIVE
Ionization: ESI
Collision energy: 40
Column name: NA
Retention time: 0.200 min
Base peak: 196.08036
Precursor m/z: 196.08036
Precursor type: [M+H]+
Precursor intensity: 150.5
m/z	relative intensity
41.0538	161
42.0476	168
43.0287	204
44.0574	208
45.0404	248
46.0363	251
55.0225	251
56.0603	255
57.0386	259
58.0494	273
60.0598	298
61.0387	373
66.0354	395
68.0602	425
69.0353	433
70.0341	500
72.0557	521
74.0345	535
80.0522	556
84.0466	557
85.0452	670
86.0656	765
114.0618	935
122.0594	999
