Mass spectrum: DL-Mandelic acid; LC-ESI-QTOF; MS2; CE: 15.00;  [M-H2O+Na]+
Name: DL-Mandelic acid
Class: NA
Formula: C8H8O3
Exact mass: 152.0473
SMILES: C1=CC=C(C=C1)C(C(=O)O)O
InChI: InChI=1S/C8H8O3/c9-7(8(10)11)6-4-2-1-3-5-6/h1-5,7,9H,(H,10,11)
Instrument: Bruker MicrOTOF-Q
Instrument type: LC-ESI-QTOF
Ms type: MS2
Ion mode: POSITIVE
Ionization: ESI
Collision energy: 15.00
Column name: Acquity CSHC18
Retention time: NA
Base peak: 157.0260
Precursor m/z: 157.0260
Precursor type: [M-H2O+Na]+
m/z	relative intensity
77.0314	37
106.9758	8
107.045	999
108.0499	90
135.0415	439
136.0362	24
