Mass spectrum: 1-Methylindole-3-carboxylic acid (1Me-I3COOH); LC-ESI-QTOF; MS2; CE: 0.00;  [M+H]+
Name: 1-Methylindole-3-carboxylic acid (1Me-I3COOH)
Class: NA
Formula: C10H9NO2
Exact mass: 175.0633
SMILES: CN1C=C(C2=CC=CC=C21)C(=O)O
InChI: InChI=1S/C10H9NO2/c1-11-6-8(10(12)13)7-4-2-3-5-9(7)11/h2-6H,1H3,(H,12,13)
Instrument: Bruker MicrOTOF-Q
Instrument type: LC-ESI-QTOF
Ms type: MS2
Ion mode: POSITIVE
Ionization: ESI
Collision energy: 0.00
Column name: Acquity CSHC18
Retention time: NA
Base peak: 176.0706
Precursor m/z: 176.0706
Precursor type: [M+H]+
m/z	relative intensity
90.0402	1
115.0552	3
116.0474	3
116.9874	1
117.0555	523
117.2685	1
118.0597	46
128.0471	3
129.0549	1
130.0632	85
131.071	143
131.5948	1
131.9807	1
132.0093	3
132.0794	999
132.3592	2
132.5249	1
132.7229	1
133.0823	104
135.6251	4
135.6415	2
135.7061	1
148.0733	4
157.9563	1
158.0594	561
158.1893	2
158.3923	1
159.0623	69
160.0639	1
161.0457	1
175.0638	5
176.0706	46
177.0763	5
