Mass spectrum: Sphingosine; LC-ESI-QTOF; MS2; CE: 20-40eV;  [M+H]+
Name: Sphingosine
Class: Sphingolipid
Formula: C18H37NO2
Exact mass: 299.2824
SMILES: CCCCCCCCCCCCCC(=C(C(C(CO)(N)[H])(O)[H])[H])[H]
InChI: InChI=1S/C18H37NO2/c1-2-3-4-5-6-7-8-9-10-11-12-13-14-15-18(21)17(19)16-20/h14-15,17-18,20-21H,2-13,16,19H2,1H3
Instrument: Impact II, Bruker; Dionex 3000, Thermo Scientific
Instrument type: LC-ESI-QTOF
Ms type: MS2
Ion mode: POSITIVE
Ionization: ESI
Collision energy: 20-40eV
Column name: Acquity CSHC18
Retention time: 16.410 min
Base peak: 300.2892
Precursor m/z: 300.2892
Precursor type: [M+H]+
Precursor intensity: 7746.62
m/z	relative intensity
95.0834	345
99.0809	59
109.1006	136
119.0874	79
135.116	144
158.0251	78
264.2684	218
280.2596	85
282.2789	999
283.2792	137
300.2885	185
