Mass spectrum: Quercetagetin 6-O-methyl ether; LC-ESI-QTOF; MS2; CE: 50eV;  [M+H]+
Name: Quercetagetin 6-O-methyl ether
Class: Flavonol
Formula: C16H12O8
Exact mass: 332.0532
SMILES: COC1=C(C2=C(C=C1O)OC(=C(C2=O)O)C3=CC(=C(C=C3)O)O)O
InChI: InChI=1S/C16H12O8/c1-23-16-9(19)5-10-11(13(16)21)12(20)14(22)15(24-10)6-2-3-7(17)8(18)4-6/h2-5,17-19,21-22H,1H3
Instrument: TIMS-TOF Pro, Bruker Daltonik; Elute UHPLC System, Bruker Daltonik
Instrument type: LC-ESI-QTOF
Ms type: MS2
Ion mode: POSITIVE
Ionization: ESI
Collision energy: 50eV
Column name: Acquity CSHC18
Retention time: 6.773 min
Base peak: 333.0599
Precursor m/z: 333.0599
Precursor type: [M+H]+
Precursor intensity: 185560.2
m/z	relative intensity
50.8235	6
94.0407	6
113.0236	4
133.0267	6
137.005	6
137.0217	14
138.0321	11
147.0437	7
150.0313	12
153.0214	9
160.052	12
167.9801	5
169.012	20
177.0339	5
188.0314	7
208.0006	6
244.0228	5
246.0444	9
260.9906	6
262.0451	11
272.0319	16
289.0348	9
299.0136	2
317.028	36
318.0147	27
318.0345	325
319.0398	35
320.4952	2
333.028	18
333.057	999
