Mass spectrum: acyl sugar_S3:21 (5,5,11); LC-ESI-ITFT; MS2; CE: 35 NCE;  [M+FA-H]-
Name: acyl sugar_S3:21 (5,5,11)
Class: acyl sugar
Formula: C33H58O14
Exact mass: 678.3827
SMILES: CCC(C)CCCCCCC(=O)OC1C(C(OC1(CO)OC2C(C(C(C(O2)CO)OC(=O)CC(C)C)OC(=O)C(C)CC)O)CO)O
InChI: InChI=1S/C33H58O14/c1-7-20(5)13-11-9-10-12-14-24(37)44-30-26(39)22(16-34)46-33(30,18-36)47-32-27(40)29(45-31(41)21(6)8-2)28(23(17-35)42-32)43-25(38)15-19(3)4/h19-23,26-30,32,34-36,39-40H,7-18H2,1-6H3
Instrument: LTQ Orbitrap XL, Thermo Scientfic; Aquity (U)HPLC, Waters
Instrument type: LC-ESI-ITFT
Ms type: MS2
Ion mode: NEGATIVE
Ionization: ESI
Collision energy: 35 NCE
Column name: Acquity CSHC18
Retention time: 37.867 min
Base peak: 723.3832
Precursor m/z: 723.3832
Precursor type: [M+FA-H]-
Precursor intensity: 151396.3
m/z	relative intensity
491.2227	306
575.311	999
676.6127	485
