Mass spectrum: Abscisic acid; LC-ESI-QTOF; MS2; CE: 20-40eV;  [M+H-H2O]+
Name: Abscisic acid
Class: Phytohormone
Formula: C15H20O4
Exact mass: 264.1362
SMILES: CC(C(=C(C1(C(C)=CC(CC1(C)C)=O)O)[H])[H])=C(C(=O)O)[H]
InChI: InChI=1S/C15H20O4/c1-10(7-13(17)18)5-6-15(19)11(2)8-12(16)9-14(15,3)4/h5-8,19H,9H2,1-4H3,(H,17,18)
Instrument: Impact II, Bruker; Dionex 3000, Thermo Scientific
Instrument type: LC-ESI-QTOF
Ms type: MS2
Ion mode: POSITIVE
Ionization: ESI
Collision energy: 20-40eV
Column name: Acquity CSHC18
Retention time: 7.263 min
Base peak: 247.1331
Precursor m/z: 247.1331
Precursor type: [M+H-H2O]+
Precursor intensity: 6901
m/z	relative intensity
95.049	199
97.0648	139
105.0684	438
106.0711	169
109.0282	129
119.0857	326
121.0651	239
129.0697	331
135.0784	336
142.0767	181
143.0832	453
145.0649	127
149.0949	201
155.0854	186
158.1086	276
159.0823	156
159.1165	398
163.0735	216
165.0711	127
170.0652	137
170.1097	204
173.1329	259
174.1354	186
185.0952	276
187.113	999
199.1046	132
211.1118	129
229.1216	216
247.1332	226
