Mass spectrum: guanosine diphosphate mannose; LC-ESI-QTOF; MS2; CE: -10, -35, -60V;  [M-H]-
Name: guanosine diphosphate mannose
Class: NA
Formula: C16H25N5O16P2
Exact mass: 605.0772
SMILES: C1=NC2=C(N1C3C(C(C(O3)COP(=O)(O)OP(=O)(O)OC4C(C(C(C(O4)CO)O)O)O)O)O)N=C(NC2=O)N
InChI: InChI=1S/C16H25N5O16P2/c17-16-19-12-6(13(28)20-16)18-3-21(12)14-10(26)8(24)5(34-14)2-33-38(29,30)37-39(31,32)36-15-11(27)9(25)7(23)4(1-22)35-15/h3-5,7-11,14-15,22-27H,1-2H2,(H,29,30)(H,31,32)(H3,17,19,20,28)
Instrument: TripleToF 5600; Sciex
Instrument type: LC-ESI-QTOF
Ms type: MS2
Ion mode: NEGATIVE
Ionization: ESI
Collision energy: -10, -35, -60V
Column name: Acquity CSHC18
Retention time: 9.403 min
Base peak: 604.0810
Precursor m/z: 604.0810
Precursor type: [M-H]-
Precursor intensity: 77727
m/z	relative intensity
78.9598	134
96.9691	25
150.0405	95
151.0485	12
158.926	201
174.9754	13
176.9415	37
204.9969	7
207.0615	2
211.0003	18
230.9549	3
241.0181	22
259.0321	5
272.9569	73
320.9774	56
344.0475	90
345.0431	11
346.0507	3
362.0579	50
403.003	4
424.0071	157
425.0076	20
426.0151	6
442.024	105
443.0217	14
565.0552	7
591.0435	8
592.0631	14
593.0562	50
595.0688	2
602.038	9
602.1419	5
604.0416	247
604.0728	999
