Mass spectrum: guanine; LC-ESI-QTOF; MS2; CE: 35.00;  [M+H]+
Name: guanine
Class: NA
Formula: C5H5N5O
Exact mass: 151.0494
SMILES: C1=NC2=C(N1)C(=O)N=C(N2)N
InChI: InChI=1S/C5H5N5O/c6-5-9-3-2(4(11)10-5)7-1-8-3/h1H,(H4,6,7,8,9,10,11)
Instrument: Bruker MicrOTOF-Q
Instrument type: LC-ESI-QTOF
Ms type: MS2
Ion mode: POSITIVE
Ionization: ESI
Collision energy: 35.00
Column name: Acquity CSHC18
Retention time: NA
Base peak: 152.0558
Precursor m/z: 152.0558
Precursor type: [M+H]+
m/z	relative intensity
135.0288	999
