Mass spectrum: Isorhamnetin; LC-ESI-QFT; MS2; CE: 15,30,45 (NCE);  [M+H]+
Name: Isorhamnetin
Class: NA
Formula: C16H12O7
Exact mass: 316.0583
SMILES: COC1=C(O)C=CC(=C1)C1=C(O)C(=O)C2=C(O)C=C(O)C=C2O1
InChI: InChI=1S/C16H12O7/c1-22-11-4-7(2-3-9(11)18)16-15(21)14(20)13-10(19)5-8(17)6-12(13)23-16/h2-6,17-19,21H,1H3
Instrument: QE Focus, Thermo Scientfic; UPLC I-Class, Waters
Instrument type: LC-ESI-QFT
Ms type: MS2
Ion mode: POSITIVE
Ionization: ESI
Collision energy: 15,30,45 (NCE)
Column name: Acquity CSHC18
Retention time: 2.524 min
Base peak: 317.0656
Precursor m/z: 317.0656
Precursor type: [M+H]+
Precursor intensity: 13785400
m/z	relative intensity
92.0262	2
93.034	4
111.0082	1
121.0286	5
139.0391	10
151.0387	7
153.0182	44
165.018	8
177.0563	1
183.029	1
201.0553	5
203.0331	1
219.0288	1
228.0418	5
229.0497	25
231.0284	1
245.0443	5
246.0522	12
257.0446	26
260.0317	3
261.0755	4
270.9081	1
271.0603	1
273.0392	9
274.0471	44
274.077	1
284.0321	4
285.0392	53
288.0634	1
302.0421	171
317.0655	999
