Mass spectrum: Pseudoephedrine; ESI-TOF; MS2; CE: 0.6458333;  [M+H]+
Name: Pseudoephedrine
Class: NA
Formula: C10H15NO
Exact mass: 165.11536
SMILES: CNC(C)C(O)C1=CC=CC=C1
InChI: InChI=1S/C10H15NO/c1-8(11-2)10(12)9-6-4-3-5-7-9/h3-8,10-12H,1-2H3
Instrument: waters xevo g2 TOF
Instrument type: ESI-TOF
Ms type: MS2
Ion mode: POSITIVE
Ionization: ESI
Collision energy: 0.6458333
Column name: Acquity CSHC18
Retention time: 1.665 min
Base peak: 166.12336
Precursor m/z: 166.12336
Precursor type: [M+H]+
m/z	relative intensity
70.0662	31
72.9381	1
91.0547	173
104.0622	20
115.0546	331
116.0606	72
117.0702	82
117.0705	96
118.0707	54
132.0809	92
133.0889	513
134.0922	41
148.1125	999
149.1156	119
