Mass spectrum: DIAMINOPIMELATE; LC-ESI-QFT; MS2; CE: 30eV;  [M+H]+
Name: DIAMINOPIMELATE
Class: NA
Formula: C7H14N2O4
Exact mass: 190.09536
SMILES: N[C@@H](CCC[C@H](N)C(O)=O)C(O)=O
InChI: InChI=1S/C7H14N2O4/c8-4(6(10)11)2-1-3-5(9)7(12)13/h4-5H,1-3,8-9H2,(H,10,11)(H,12,13)/t4-,5-/m0/s1
Instrument: Q-Exactive Orbitrap, Thermo Scientfic; Ultimate 3000 HPLC, Thermo Scientfic
Instrument type: LC-ESI-QFT
Ms type: MS2
Ion mode: POSITIVE
Ionization: ESI
Collision energy: 30eV
Column name: Acquity CSHC18
Retention time: 0.568 min
Base peak: 191.1026
Precursor m/z: 191.1026
Precursor type: [M+H]+
Precursor intensity: 142
m/z	relative intensity
54.4583	5
55.055	43
57.1385	5
65.1391	4
68.4323	4
68.9971	5
71.6844	5
74.4371	5
82.0658	423
83.2179	6
84.0815	205
85.5732	5
88.996	5
93.1758	5
98.0392	6
99.3323	7
100.0763	30
101.557	5
110.0607	10
112.2037	5
114.0555	28
127.3289	5
129.0679	4
129.0689	5
129.0743	154
143.0961	8
145.0974	145
151.5051	5
155.0819	22
156.0658	89
173.0925	570
174.0764	412
174.0959	9
175.0802	6
179.2287	5
191.103	999
192.1063	33
193.0721	5
193.6182	7
196.495	5
211.4199	5
