Mass spectrum: GDP; LC-ESI-QTOF; MS2; CE: 30;  [M+H]+
Name: GDP
Class: NA
Formula: C10H15N5O11P2
Exact mass: 443.02433
SMILES: C1=NC2=C(N1C3C(C(C(O3)COP(=O)(O)OP(=O)(O)O)O)O)N=C(NC2=O)N
InChI: InChI=1S/C10H15N5O11P2/c11-10-13-7-4(8(18)14-10)12-2-15(7)9-6(17)5(16)3(25-9)1-24-28(22,23)26-27(19,20)21/h2-3,5-6,9,16-17H,1H2,(H,22,23)(H2,19,20,21)(H3,11,13,14,18)
Instrument: impact II
Instrument type: LC-ESI-QTOF
Ms type: MS2
Ion mode: POSITIVE
Ionization: ESI
Collision energy: 30
Column name: Acquity CSHC18
Retention time: 1.797 min
Base peak: 444.03160
Precursor m/z: 444.03160
Precursor type: [M+H]+
m/z	relative intensity
97.0285	46
98.032	4
109.0506	1
110.0348	8
134.0459	1
135.0302	31
136.0332	1
152.0566	999
152.072	86
152.0871	3
152.1123	6
152.1443	18
152.1556	25
152.174	10
152.2242	5
152.2709	1
152.2811	1
152.4163	1
152.4451	1
153.0414	4
153.0594	79
153.075	2
154.0612	4
178.9505	2
248.0773	2
295.0934	1
364.0651	2
443.335	5
