Mass spectrum: N-ACETYLSERINE; LC-ESI-QFT; MS2; CE: 30eV;  [M+H]+
Name: N-ACETYLSERINE
Class: NA
Formula: C5H9NO4
Exact mass: 147.05316
SMILES: CC(=O)N[C@@H](CO)C(O)=O
InChI: InChI=1S/C5H9NO4/c1-3(8)6-4(2-7)5(9)10/h4,7H,2H2,1H3,(H,6,8)(H,9,10)/t4-/m0/s1
Instrument: Q-Exactive Orbitrap, Thermo Scientfic; Ultimate 3000 HPLC, Thermo Scientfic
Instrument type: LC-ESI-QFT
Ms type: MS2
Ion mode: POSITIVE
Ionization: ESI
Collision energy: 30eV
Column name: Acquity CSHC18
Retention time: 0.639 min
Base peak: 148.0604
Precursor m/z: 148.0604
Precursor type: [M+H]+
Precursor intensity: 160
m/z	relative intensity
56.0504	4
60.0453	417
61.0486	3
70.0296	7
71.9302	1
84.0452	50
88.0401	242
89.0434	4
89.9406	10
97.0081	1
102.0557	43
102.059	1
106.0506	999
107.0539	17
107.9511	14
120.9656	10
121.0288	2
121.9666	4
121.9734	5
124.9776	3
125.9616	23
130.0292	3
130.0504	73
130.967	16
131.0343	5
131.0535	1
148.0188	1
148.0609	22
148.0974	5
148.9775	57
149.0238	31
