Mass spectrum: ferulic acid; LC-ESI-QTOF; MS2; CE: -10, -35, -60V;  [M-H]-
Name: ferulic acid
Class: NA
Formula: C10H10O4
Exact mass: 194.0579
SMILES: COC1=C(C=CC(=C1)C=CC(=O)O)O
InChI: InChI=1S/C10H10O4/c1-14-9-6-7(2-4-8(9)11)3-5-10(12)13/h2-6,11H,1H3,(H,12,13)
Instrument: TripleToF 5600; Sciex
Instrument type: LC-ESI-QTOF
Ms type: MS2
Ion mode: NEGATIVE
Ionization: ESI
Collision energy: -10, -35, -60V
Column name: Acquity CSHC18
Retention time: 9.306 min
Base peak: 193.0511
Precursor m/z: 193.0511
Precursor type: [M-H]-
Precursor intensity: 87927.81
m/z	relative intensity
132.0214	11
133.0354	57
134.037	311
135.0407	64
149.0251	30
149.0596	150
150.0332	53
163.0452	115
178.0268	394
179.0321	61
193.0034	44
193.0524	999
