Mass spectrum: sesamin; LC-ESI-ITFT; MS2; CE: 0.3;  [2M+H]+
Name: sesamin
Class: lignans
Formula: C20H18O6
Exact mass: 354.1103
SMILES: C1C2C(COC2C3=CC4=C(C=C3)OCO4)C(O1)C5=CC6=C(C=C5)OCO6
InChI: InChI=1S/C20H18O6/c1-3-15-17(25-9-23-15)5-11(1)19-13-7-22-20(14(13)8-21-19)12-2-4-16-18(6-12)26-10-24-16/h1-6,13-14,19-20H,7-10H2
Instrument: LTQ-Orbitrap XL hybrid mass spectrometer (Thermo Scientific)
Instrument type: LC-ESI-ITFT
Ms type: MS2
Ion mode: POSITIVE
Ionization: ESI
Collision energy: 0.3
Column name: Acquity CSHC18
Retention time: 12.967 min
Base peak: 709.2305
Precursor m/z: 709.2305
Precursor type: [2M+H]+
Precursor intensity: 643030
m/z	relative intensity
194.4934	78
194.5161	77
196.0231	120
196.0929	81
196.1024	335
197.1632	86
199.8688	72
203.0711	107
204.6446	66
211.4816	71
233.0816	389
257.1134	64
261.0917	101
262.3452	69
282.1078	70
287.2878	191
287.3019	597
287.3144	156
289.0863	158
296.4272	71
301.1529	69
307.0971	108
309.1021	64
314.4561	65
319.0977	222
323.771	100
337.108	999
351.5788	76
362.8832	60
418.6506	58
456.8464	144
478.5379	130
537.9188	85
689.0936	106
