Mass spectrum: H-Phe-Leu-OH; LC-ESI-QTOF; MS2; CE: 15.00;  [M+H]+
Name: H-Phe-Leu-OH
Class: NA
Formula: C15H22N2O3
Exact mass: 278.1630
SMILES: CC(C)CC(C(=O)O)NC(=O)C(CC1=CC=CC=C1)N
InChI: InChI=1S/C15H22N2O3/c1-10(2)8-13(15(19)20)17-14(18)12(16)9-11-6-4-3-5-7-11/h3-7,10,12-13H,8-9,16H2,1-2H3,(H,17,18)(H,19,20)
Instrument: Bruker MicrOTOF-Q
Instrument type: LC-ESI-QTOF
Ms type: MS2
Ion mode: POSITIVE
Ionization: ESI
Collision energy: 15.00
Column name: Acquity CSHC18
Retention time: NA
Base peak: 279.1703
Precursor m/z: 279.1703
Precursor type: [M+H]+
m/z	relative intensity
121.64	2
147.17	4
163.93	3
174.13	12
187.11	3
187.16	3
188.14	27
198.13	5
202.09	6
204.14	5
206.09	7
215.15	11
216.14	92
217.16	13
220.13	20
221.14	8
233.02	5
233.17	729
233.38	2
233.48	4
233.71	3
233.91	3
233.96	3
234.03	2
234.16	148
235.15	4
235.33	4
238.08	4
244.13	11
261.16	39
262.15	60
263.15	9
264.14	3
275.94	2
278.92	3
278.98	3
279.17	999
279.38	3
279.46	3
279.69	3
279.9	4
280.17	173
280.85	2
507.85	3
556.9	5
859.69	3
