Mass spectrum: 17-phenyl trinor Prostaglandin F2-alpha ethyl amide; ESI-TOF; MS2; CE: 6.0000000;  [M+H]+
Name: 17-phenyl trinor Prostaglandin F2-alpha ethyl amide
Class: NA
Formula: C25H37NO4
Exact mass: 415.27226
SMILES: CCN([H])C(CCC/C=C\C[C@@H]1[C@@H](/C=C/[C@@H](O)CCC2=CC=CC=C2)[C@H](O)C[C@@H]1O)=O
InChI: InChI=1S/C25H37NO4/c1-2-26-25(30)13-9-4-3-8-12-21-22(24(29)18-23(21)28)17-16-20(27)15-14-19-10-6-5-7-11-19/h3,5-8,10-11,16-17,20-24,27-29H,2,4,9,12-15,18H2,1H3,(H,26,30)/b8-3-,17-16+/t20-,21+,22+,23-,24+/m0/s1
Instrument: waters xevo g2 TOF
Instrument type: ESI-TOF
Ms type: MS2
Ion mode: POSITIVE
Ionization: ESI
Collision energy: 6.0000000
Column name: Acquity CSHC18
Retention time: 3.389 min
Base peak: 416.28026
Precursor m/z: 416.28026
Precursor type: [M+H]+
m/z	relative intensity
114.0935	7
117.071	11
128.1081	8
131.0866	30
143.0868	5
158.1367	12
184.1276	4
187.1123	9
192.1408	3
194.1318	3
196.1701	128
196.5988	76
197.1527	15
200.5994	4
206.153	6
207.1174	6
209.6071	35
210.1089	4
218.6125	10
219.1154	6
220.1455	4
221.1327	5
222.16	4
223.1486	3
224.1598	7
227.6137	3
232.1702	61
233.1722	10
234.184	6
244.1684	5
246.1863	17
249.1638	1
250.1761	9
258.1902	23
259.19	4
273.1605	2
275.1801	6
282.1934	4
284.2005	2
289.1943	5
291.1746	15
317.2004	109
318.204	25
319.2047	6
324.2289	22
325.2353	5
326.2482	216
327.2512	55
328.2564	5
335.2018	20
336.2308	259
337.2358	62
350.2452	3
352.262	10
354.2422	296
355.2351	73
356.2508	8
363.252	408
364.2546	51
365.2555	2
379.1591	10
380.2578	652
381.2589	173
382.2651	14
398.2698	999
399.2733	273
400.2781	43
401.2779	2
