Mass spectrum: Methyl 3,4,5-trihydroxybenzoate; LC-ESI-QTOF; MS2; CE: 15.00;  [M+H]+
Name: Methyl 3,4,5-trihydroxybenzoate
Class: NA
Formula: C8H8O5
Exact mass: 184.0372
SMILES: COC(=O)C1=CC(=C(C(=C1)O)O)O
InChI: InChI=1S/C8H8O5/c1-13-8(12)4-2-5(9)7(11)6(10)3-4/h2-3,9-11H,1H3
Instrument: Bruker MicrOTOF-Q
Instrument type: LC-ESI-QTOF
Ms type: MS2
Ion mode: POSITIVE
Ionization: ESI
Collision energy: 15.00
Column name: Acquity CSHC18
Retention time: NA
Base peak: 185.0444
Precursor m/z: 185.0444
Precursor type: [M+H]+
m/z	relative intensity
107.0116	17
108.0183	3
108.0187	1
123.0444	54
124.0466	5
125.0234	223
126.0313	522
127.0355	29
129.8412	1
135.0079	75
136.0127	1
136.0139	3
139.0388	3
141.054	4
143.0326	2
152.8977	1
152.9419	2
153.0185	999
153.2142	1
153.2599	1
154.0222	71
155.0239	1
155.0245	1
167.0327	4
170.0166	1
170.0181	1
171.0295	1
185.0397	2
185.0466	6
