Mass spectrum: 5,8-Dihydroxy-1,4-naphthoquinone; LC-ESI-QTOF; MS2; CE: 15.00;  [M+H]+
Name: 5,8-Dihydroxy-1,4-naphthoquinone
Class: NA
Formula: C10H6O4
Exact mass: 190.0266
SMILES: C1=CC(=C2C(=O)C=CC(=O)C2=C1O)O
InChI: InChI=1S/C10H6O4/c11-5-1-2-6(12)10-8(14)4-3-7(13)9(5)10/h1-4,11-12H
Instrument: Bruker MicrOTOF-Q
Instrument type: LC-ESI-QTOF
Ms type: MS2
Ion mode: POSITIVE
Ionization: ESI
Collision energy: 15.00
Column name: Acquity CSHC18
Retention time: NA
Base peak: 191.0339
Precursor m/z: 191.0339
Precursor type: [M+H]+
m/z	relative intensity
117.0324	4
119.0493	1
135.0434	7
137.0242	1
145.0277	59
146.0305	5
149.0251	9
162.9022	1
163.0392	579
163.3016	1
164.0423	65
165.0409	2
173.0245	12
174.0354	6
189.0198	2
190.0271	3
190.8943	1
190.9186	1
191.034	999
191.2697	2
191.5784	1
192.0379	134
193.0443	4
