Mass spectrum: 5-HYDROXYLYSINE; LC-ESI-QTOF; MS2; CE: 40;  [M+H]+
Name: 5-HYDROXYLYSINE
Class: NA
Formula: C6H14N2O3
Exact mass: 162.10044
SMILES: NC[C@H](O)CC[C@H](N)C(O)=O
InChI: InChI=1S/C6H14N2O3/c7-3-4(9)1-2-5(8)6(10)11/h4-5,9H,1-3,7-8H2,(H,10,11)/t4-,5+/m1/s1
Instrument: Agilent 6530Â Q-TOF LC/MS
Instrument type: LC-ESI-QTOF
Ms type: MS2
Ion mode: POSITIVE
Ionization: ESI
Collision energy: 40
Column name: NA
Retention time: 0.200 min
Base peak: 163.10586
Precursor m/z: 163.10586
Precursor type: [M+H]+
Precursor intensity: 154.5
m/z	relative intensity
41.0429	70
43.057	73
45.0366	80
53.0489	90
54.0323	95
55.0778	117
56.0733	118
57.0539	133
67.0499	155
68.0485	164
69.0592	215
80.0446	223
82.0697	959
84.0782	999
