Mass spectrum: (-)- Epicatechin; LC-ESI-QTOF; MS2; CE: 35.00;  [M+H]+
Name: (-)- Epicatechin
Class: NA
Formula: C15H14O6
Exact mass: 290.0790
SMILES: C1C(C(OC2=CC(=CC(=C21)O)O)C3=CC(=C(C=C3)O)O)O
InChI: InChI=1S/C15H14O6/c16-8-4-11(18)9-6-13(20)15(21-14(9)5-8)7-1-2-10(17)12(19)3-7/h1-5,13,15-20H,6H2
Instrument: Bruker MicrOTOF-Q
Instrument type: LC-ESI-QTOF
Ms type: MS2
Ion mode: POSITIVE
Ionization: ESI
Collision energy: 35.00
Column name: Acquity CSHC18
Retention time: NA
Base peak: 291.0861
Precursor m/z: 291.0861
Precursor type: [M+H]+
m/z	relative intensity
115.0546	80
116.0501	15
119.049	117
121.0297	30
123.0432	999
124.0465	97
125.0479	15
127.0418	22
131.0459	34
132.0527	36
133.0597	43
137.0243	62
139.0391	662
140.0399	48
143.0492	92
144.056	24
147.0437	341
148.0458	75
149.0533	23
150.0543	13
152.0621	26
153.0547	18
155.0461	9
157.0646	10
159.0419	17
160.0546	19
161.06	175
162.0622	21
163.0402	80
165.0572	23
169.0693	11
171.0434	20
175.0706	13
177.0545	50
179.0616	17
181.0668	32
185.0545	13
187.0414	15
189.0532	48
190.0523	11
207.0587	13
