Mass spectrum: 3,3',4',7-Tetrahydroxyflavone; LC-ESI-QTOF; MS2; CE: 15;  [M-H]-
Name: 3,3',4',7-Tetrahydroxyflavone
Class: NA
Formula: C15H10O6
Exact mass: 286.0477
SMILES: C1=CC(=C(C=C1C2=C(C(=O)C3=C(O2)C=C(C=C3)O)O)O)O
InChI: InChI=1S/C15H10O6/c16-8-2-3-9-12(6-8)21-15(14(20)13(9)19)7-1-4-10(17)11(18)5-7/h1-6,16-18,20H
Instrument: Bruker MicrOTOF-Q
Instrument type: LC-ESI-QTOF
Ms type: MS2
Ion mode: NEGATIVE
Ionization: ESI
Collision energy: 15
Column name: Acquity CSHC18
Retention time: NA
Base peak: 285.0405
Precursor m/z: 285.0405
Precursor type: [M-H]-
m/z	relative intensity
91.0152	13
93.0331	7
109.0282	36
119.5834	6
121.03	896
122.0312	60
129.8728	6
135.0067	294
136.0124	153
139.0394	76
140.0379	6
147.0063	14
148.02	28
148.9893	254
150.0286	39
153.0193	119
154.0206	15
157.064	10
161.023	11
163.0033	999
163.4601	8
164.007	62
167.0532	9
170.4936	6
176.0114	15
177.0167	37
183.0449	19
184.0555	7
185.058	88
186.0528	10
187.038	35
188.0446	9
189.0546	26
195.0439	101
196.0536	26
197.0584	66
198.0484	13
199.0409	21
200.0453	11
201.0556	54
211.0407	290
211.9453	50
213.0546	355
214.0339	69
215.0355	63
216.0418	12
217.0474	6
223.0402	48
224.0464	46
225.0464	9
227.0309	23
228.0379	22
229.137	259
230.0536	189
238.0276	6
239.0346	209
240.0416	120
241.108	216
242.0546	87
243.0285	20
255.0315	24
256.0348	70
257.054	276
258.0488	87
267.0299	26
268.0347	30
269.0399	9
283.0303	12
284.8613	309
287.0468	22
