Mass spectrum: 5'-Methylthioadenosine; LC-ESI-ITFT; MS2; CE: 100;  [M-H]-
Name: 5'-Methylthioadenosine
Class: Nucleosides, nucleotides, and analogues; 5'-deoxyribonucleosides; 5'-deoxy-5'-thionucleosides
Formula: C11H15N5O3S
Exact mass: 297.08956
SMILES: CSC[C@H]1O[C@H]([C@H](O)[C@@H]1O)N1C=NC2=C1N=CN=C2N
InChI: InChI=1S/C11H15N5O3S/c1-20-2-5-7(17)8(18)11(19-5)16-4-15-6-9(12)13-3-14-10(6)16/h3-5,7-8,11,17-18H,2H2,1H3,(H2,12,13,14)/t5-,7-,8-,11-/m1/s1
Instrument: Thermo Scientific Q-Exactive Focus
Instrument type: LC-ESI-ITFT
Ms type: MS2
Ion mode: NEGATIVE
Ionization: ESI
Collision energy: 100
Column name: Acquity CSHC18
Retention time: 2.584 min
Base peak: 296.08228
Precursor m/z: 296.08228
Precursor type: [M-H]-
m/z	relative intensity
64.0054	51
65.0133	999
66.0085	171
68.0241	68
90.0085	103
92.0242	268
106.0272	29
107.0351	71
271.3072	23
283.4403	20
