Mass spectrum: 7?-hydroxycholestenone; ESI-TOF; MS2; CE: 6.0000000;  [M+H]+
Name: 7?-hydroxycholestenone
Class: NA
Formula: C27H44O2
Exact mass: 400.33413
SMILES: [H]OC2([H])(C([H])([H])C1=C([H])C(=O)C([H])([H])C([H])([H])C1(C([H])([H])[H])C3([H])(C([H])([H])C([H])([H])C4(C([H])([H])[H])(C([H])(C([H])([H])C([H])([H])C4([H])(C23([H])))C([H])(C([H])([H])[H])C([H])([H])C([H])([H])C([H])([H])C([H])(C([H])([H])[H])C([H])([H])[H])))
InChI: InChI=1S/C27H44O2/c1-17(2)7-6-8-18(3)21-9-10-22-25-23(12-14-27(21,22)5)26(4)13-11-20(28)15-19(26)16-24(25)29/h15,17-18,21-25,29H,6-14,16H2,1-5H3
Instrument: waters xevo g2 TOF
Instrument type: ESI-TOF
Ms type: MS2
Ion mode: POSITIVE
Ionization: ESI
Collision energy: 6.0000000
Column name: Acquity CSHC18
Retention time: 9.313 min
Base peak: 401.34213
Precursor m/z: 401.34213
Precursor type: [M+H]+
m/z	relative intensity
177.128	2
203.144	1
211.1443	3
227.1787	4
231.6558	11
232.1582	4
240.6619	8
241.1632	3
243.174	2
247.6695	5
249.6667	2
252.17	4
256.6754	12
257.187	9
261.1756	17
261.6768	10
271.2052	2
327.1626	5
341.178	2
365.3207	8
383.2769	38
384.3335	21
401.3415	999
402.3445	329
