Mass spectrum: N-ACETYLPHENYLALANINE; LC-ESI-QTOF; MS2; CE: 10;  [M+H]+
Name: N-ACETYLPHENYLALANINE
Class: NA
Formula: C11H13NO3
Exact mass: 207.08954
SMILES: CC(=O)N[C@@H](CC1=CC=CC=C1)C(O)=O
InChI: InChI=1S/C11H13NO3/c1-8(13)12-10(11(14)15)7-9-5-3-2-4-6-9/h2-6,10H,7H2,1H3,(H,12,13)(H,14,15)/t10-/m0/s1
Instrument: Agilent 6530Â Q-TOF LC/MS
Instrument type: LC-ESI-QTOF
Ms type: MS2
Ion mode: POSITIVE
Ionization: ESI
Collision energy: 10
Column name: NA
Retention time: 0.200 min
Base peak: 208.09465
Precursor m/z: 208.09465
Precursor type: [M+H]+
Precursor intensity: 194.5
m/z	relative intensity
43.0247	32
65.0354	35
77.0528	37
79.0502	37
91.0647	38
93.0746	40
95.0813	54
103.0776	64
107.0574	67
120.5675	81
121.2802	82
121.7178	95
122.1619	105
131.062	113
148.0757	138
149.0677	138
162.1296	173
166.1753	466
166.4008	759
190.0963	774
208.0976	999
