Mass spectrum: HOMOCYSTEINE; LC-ESI-QTOF; MS2; CE: 10;  [M-H]-
Name: HOMOCYSTEINE
Class: NA
Formula: C4H9NO2S
Exact mass: 135.03540
SMILES: C(CS)C(C(=O)O)N
InChI: InChI=1S/C4H9NO2S/c5-3(1-2-8)4(6)7/h3,8H,1-2,5H2,(H,6,7)
Instrument: Agilent 6530Â Q-TOF LC/MS
Instrument type: LC-ESI-QTOF
Ms type: MS2
Ion mode: NEGATIVE
Ionization: ESI
Collision energy: 10
Column name: NA
Retention time: 0.200 min
Base peak: 134.02648
Precursor m/z: 134.02648
Precursor type: [M-H]-
Precursor intensity: 184
m/z	relative intensity
57.9853	210
64.0211	213
68.0162	215
78.9563	231
95.9523	256
134.0098	326
134.8842	595
135.0308	999
