Mass spectrum: INDOLE-3-METHYL ACETATE; LC-ESI-QFT; MS2; CE: 30eV;  [M+H]+
Name: INDOLE-3-METHYL ACETATE
Class: NA
Formula: C11H11NO2
Exact mass: 189.07898
SMILES: COC(=O)CC1=CNC2=C1C=CC=C2
InChI: InChI=1S/C11H11NO2/c1-14-11(13)6-8-7-12-10-5-3-2-4-9(8)10/h2-5,7,12H,6H2,1H3
Instrument: Q-Exactive Orbitrap, Thermo Scientfic; Ultimate 3000 HPLC, Thermo Scientfic
Instrument type: LC-ESI-QFT
Ms type: MS2
Ion mode: POSITIVE
Ionization: ESI
Collision energy: 30eV
Column name: Acquity CSHC18
Retention time: 8.585 min
Base peak: 190.0863
Precursor m/z: 190.0863
Precursor type: [M+H]+
Precursor intensity: 161
m/z	relative intensity
51.5355	9
55.3885	10
60.1658	9
69.0095	9
70.0582	12
71.2627	11
77.0388	26
82.1416	11
83.118	10
83.819	9
93.6146	12
103.0499	12
103.0546	24
104.9457	13
105.1267	12
105.963	11
121.9663	13
122.3502	13
122.6663	13
128.0491	23
131.0685	999
149.0234	58
180.2463	14
190.0863	570
191.09	18
194.3862	12
