Mass spectrum: Allose; ESI-TOF; MS2; CE: 0.6458333;  [M+H]+
Name: Allose
Class: NA
Formula: C6H12O6
Exact mass: 180.06339
SMILES: OCC1OC(O)C(O)C(O)C1O
InChI: InChI=1S/C6H12O6/c7-1-2-3(8)4(9)5(10)6(11)12-2/h2-11H,1H2
Instrument: waters xevo g2 TOF
Instrument type: ESI-TOF
Ms type: MS2
Ion mode: POSITIVE
Ionization: ESI
Collision energy: 0.6458333
Column name: Acquity CSHC18
Retention time: 0.565 min
Base peak: 181.07139
Precursor m/z: 181.07139
Precursor type: [M+H]+
m/z	relative intensity
85.0291	306
96.9611	10
96.9612	10
101.9403	421
113.0796	10
114.9485	518
126.9714	111
127.0394	157
129.0524	10
129.0532	10
135.9917	10
140.9637	181
143.9593	10
145.05	10
154.9669	10
163.0605	10
169.9662	207
173.9619	271
174.9559	10
174.9689	772
181.9661	147
186.9683	328
191.0413	54
203.0533	999
203.9698	109
204.0582	10
215.971	246
233.9826	10
243.9677	10
256.1026	10
258.1675	10
258.1715	10
261.9786	10
262.9848	10
275.9934	344
280.9962	10
290.0773	10
294.0041	205
295.0092	151
297.0117	30
355.0362	10
378.0237	10
383.1164	179
385.0928	10
414.0471	10
415.0511	10
