Mass spectrum: Glucosan; ESI-TOF; MS2; CE: 0.6458333;  [M+H]+
Name: Glucosan
Class: NA
Formula: C6H10O5
Exact mass: 162.05282
SMILES: OC1C2COC(O2)C(O)C1O
InChI: InChI=1S/C6H10O5/c7-3-2-1-10-6(11-2)5(9)4(3)8/h2-9H,1H2
Instrument: waters xevo g2 TOF
Instrument type: ESI-TOF
Ms type: MS2
Ion mode: POSITIVE
Ionization: ESI
Collision energy: 0.6458333
Column name: Acquity CSHC18
Retention time: 0.583 min
Base peak: 163.06082
Precursor m/z: 163.06082
Precursor type: [M+H]+
m/z	relative intensity
98.9631	498
113.94	363
113.9643	10
154.9669	237
169.0675	10
169.9659	332
182.033	10
184.9859	10
185.0422	999
201.0074	627
216.9806	468
247.0116	10
247.0132	10
256.9979	10
258.0065	10
261.9772	10
262.9853	224
263.99	10
303.0049	10
363.0608	194
378.0251	786
379.0316	87
