Mass spectrum: Byakangelicin; LC-ESI-ITFT; MS2; CE: 45eV;  [M+H]+
Name: Byakangelicin
Class: coumarin
Formula: C17H18O7
Exact mass: 334.1053
SMILES: CC(C)(C(COC1=C2C(=C(C3=C1OC(=O)C=C3)OC)C=CO2)O)O
InChI: InChI=1S/C17H18O7/c1-17(2,20)11(18)8-23-16-14-10(6-7-22-14)13(21-3)9-4-5-12(19)24-15(9)16/h4-7,11,18,20H,8H2,1-3H3
Instrument: LTQ Orbitrap XL, Thermo Scientfic; Dionex Ultimate 300
Instrument type: LC-ESI-ITFT
Ms type: MS2
Ion mode: POSITIVE
Ionization: ESI
Collision energy: 45eV
Column name: Uptispher ODB C18
Retention time: 28.6 min
Base peak: 335.1100
Precursor m/z: 335.1100
Precursor type: [M+H]+
m/z	relative intensity
232.8705	999
266.8628	33
278.4179	67
280.7978	253
292.0836	169
296.5961	84
308.0619	186
