Mass spectrum: Quercetin 3-glucoside; LC-ESI-QTOF; MS2; CE: 50eV;  [M+H]+
Name: Quercetin 3-glucoside
Class: Flavonol
Formula: C21H20O12
Exact mass: 464.0955
SMILES: C1=CC(=C(C=C1C2=C(C(=O)C3=C(C=C(C=C3O2)O)O)OC4C(C(C(C(O4)CO)O)O)O)O)O
InChI: InChI=1S/C21H20O12/c22-6-13-15(27)17(29)18(30)21(32-13)33-20-16(28)14-11(26)4-8(23)5-12(14)31-19(20)7-1-2-9(24)10(25)3-7/h1-5,13,15,17-18,21-27,29-30H,6H2
Instrument: TIMS-TOF Pro, Bruker Daltonik; Elute UHPLC System, Bruker Daltonik
Instrument type: LC-ESI-QTOF
Ms type: MS2
Ion mode: POSITIVE
Ionization: ESI
Collision energy: 50eV
Column name: Acquity CSHC18
Retention time: 5.191 min
Base peak: 465.1007
Precursor m/z: 465.1007
Precursor type: [M+H]+
Precursor intensity: 48752.44
m/z	relative intensity
41.0397	1
69.0333	3
85.0283	9
87.043	1
91.0386	1
97.0274	8
109.0231	1
115.0345	1
137.0234	2
145.0475	8
153.0171	3
163.0342	1
165.0052	1
201.0192	1
229.0491	3
257.0423	3
285.0369	2
289.509	2
302.9461	2
302.9986	13
303.0483	999
303.5429	5
303.7752	1
304.0518	82
305.0513	10
305.7778	1
