Mass spectrum: 8-Epi-Xanthatine-Cysteine; LC-ESI-ITFT; MS2; CE: 50eV;  [M+H]+
Name: 8-Epi-Xanthatine-Cysteine
Class: Sesquiterpenelactone; Xanthanolide
Formula: C18H25NO5S
Exact mass: 367.1453
SMILES: O=C(O)[C@@H](N)CSCC1C(=O)O[C@@H]2CC(C)C(=CC[C@H]12)/C=C/C(C)=O
InChI: InChI=1S/C18H25NO5S/c1-10-7-16-13(6-5-12(10)4-3-11(2)20)14(18(23)24-16)8-25-9-15(19)17(21)22/h3-5,10,13-16H,6-9,19H2,1-2H3,(H,21,22)/b4-3+/t10?,13-,14?,15+,16-/m1/s1
Instrument: Q Exactive Plus, ThermoFisher Scientific
Instrument type: LC-ESI-ITFT
Ms type: MS2
Ion mode: POSITIVE
Ionization: ESI
Collision energy: 50eV
Column name: Acquity CSHC18
Retention time: 5.061 min
Base peak: 368.1517
Precursor m/z: 368.1517
Precursor type: [M+H]+
Precursor intensity: 1248197000
m/z	relative intensity
55.2383	21
69.8309	114
69.8342	34
71.0499	42
76.0218	145
86.614	20
88.0216	33
88.0396	118
93.0702	38
95.0497	32
97.0096	22
103.6564	25
105.07	25
117.0709	41
119.0848	26
122.0274	116
123.08	26
131.0854	162
135.08	110
135.5368	26
137.0063	29
143.0847	45
145.1009	34
147.0804	23
155.0857	31
157.1003	499
159.0796	36
159.1176	97
163.0576	24
173.0965	54
175.0592	26
175.1119	234
181.1009	25
183.1171	49
185.0955	40
187.0575	28
187.1109	50
191.0891	192
199.1123	106
201.126	49
203.1431	25
211.1114	40
215.0886	89
219.0837	90
221.0623	51
229.1228	151
233.0981	101
237.0946	48
245.2238	22
247.1325	100
249.0896	27
261.0953	353
279.103	999
280.105	32
304.1357	141
322.1481	437
351.1243	127
368.1502	534
