Mass spectrum: Ala-Ala-Ala; ESI-TOF; MS2; CE: 0.6458333;  [M+H]+
Name: Ala-Ala-Ala
Class: NA
Formula: C9H17N3O4
Exact mass: 231.12191
SMILES: CC(C(=O)NC(C)C(=O)NC(C)C(=O)O)N
InChI: InChI=1S/C9H17N3O4/c1-4(10)7(13)11-5(2)8(14)12-6(3)9(15)16/h4-6H,10H2,1-3H3,(H,11,13)(H,12,14)(H,15,16)
Instrument: waters xevo g2 TOF
Instrument type: ESI-TOF
Ms type: MS2
Ion mode: POSITIVE
Ionization: ESI
Collision energy: 0.6458333
Column name: Acquity CSHC18
Retention time: 0.532 min
Base peak: 232.12991
Precursor m/z: 232.12991
Precursor type: [M+H]+
m/z	relative intensity
90.0554	125
114.9712	2
115.0875	999
116.0907	70
131.9506	2
133.0976	2
141.1045	2
143.0824	736
144.086	61
161.0926	277
162.0956	27
169.0977	2
187.1078	2
214.1186	2
215.1026	2
232.1295	229
233.1325	2
234.1347	2
254.1114	743
255.115	2
270.0767	117
285.0411	2
286.0488	61
401.1349	58
463.2506	36
464.2533	2
485.2318	53
486.2363	2
501.1996	76
516.1626	153
517.1651	51
747.2837	2
748.2842	2
769.2661	16
