Mass spectrum: N-Acetyl-L-aspartic acid; LC-ESI-ITFT; MS2; CE: 40;  [M+H]+
Name: N-Acetyl-L-aspartic acid
Class: Organic acids and derivatives; Carboxylic acids and derivatives; Amino acids, peptides, and analogues
Formula: C6H9NO5
Exact mass: 175.04807
SMILES: CC(=O)N[C@@H](CC(O)=O)C(O)=O
InChI: InChI=1S/C6H9NO5/c1-3(8)7-4(6(11)12)2-5(9)10/h4H,2H2,1H3,(H,7,8)(H,9,10)(H,11,12)/t4-/m0/s1
Instrument: Thermo Scientific Q-Exactive Focus
Instrument type: LC-ESI-ITFT
Ms type: MS2
Ion mode: POSITIVE
Ionization: ESI
Collision energy: 40
Column name: Acquity CSHC18
Retention time: 1.463 min
Base peak: 176.05534
Precursor m/z: 176.05534
Precursor type: [M+H]+
m/z	relative intensity
53.0027	76
60.0449	82
70.0291	153
71.0132	25
74.024	999
88.0396	431
100.9487	19
147.2009	18
157.8873	18
180.6337	19
