Mass spectrum: Luteolin-7-O-glucoside; LC-ESI-QFT; MS2; CE: 15,30,45 (NCE);  [2M+H]+
Name: Luteolin-7-O-glucoside
Class: NA
Formula: C21H20O11
Exact mass: 448.1006
SMILES: OCC1OC(OC2=CC(O)=C3C(=O)C=C(OC3=C2)C2=CC(O)=C(O)C=C2)C(O)C(O)C1O
InChI: InChI=1S/C21H20O11/c22-7-16-18(27)19(28)20(29)21(32-16)30-9-4-12(25)17-13(26)6-14(31-15(17)5-9)8-1-2-10(23)11(24)3-8/h1-6,16,18-25,27-29H,7H2
Instrument: QE Focus, Thermo Scientfic; UPLC I-Class, Waters
Instrument type: LC-ESI-QFT
Ms type: MS2
Ion mode: POSITIVE
Ionization: ESI
Collision energy: 15,30,45 (NCE)
Column name: Acquity CSHC18
Retention time: 1.477 min
Base peak: 897.2079
Precursor m/z: 897.2079
Precursor type: [2M+H]+
Precursor intensity: 2403250
m/z	relative intensity
76.6911	2
80.5742	1
194.5227	2
287.0549	999
288.8551	2
382.5548	3
407.5813	1
449.1077	227
456.2787	1
746.3179	2
