Mass spectrum: 16-phenyl tetranor Prostaglandin E1; ESI-TOF; MS2; CE: 0.6458333;  [M+H]+
Name: 16-phenyl tetranor Prostaglandin E1
Class: NA
Formula: C22H30O5
Exact mass: 374.20932
SMILES: OC(=O)CCCCCCC1C(=O)CC(O)[C@@H]1\C=C\C(O)Cc1ccccc1
InChI: InChI=1S/C22H30O5/c23-17(14-16-8-4-3-5-9-16)12-13-19-18(20(24)15-21(19)25)10-6-1-2-7-11-22(26)27/h3-5,8-9,12-13,17-19,21,23,25H,1-2,6-7,10-11,14-15H2,(H,26,27)/b13-12+/t17?,18?,19-,21?/m1/s1
Instrument: waters xevo g2 TOF
Instrument type: ESI-TOF
Ms type: MS2
Ion mode: POSITIVE
Ionization: ESI
Collision energy: 0.6458333
Column name: Acquity CSHC18
Retention time: 3.299 min
Base peak: 375.21732
Precursor m/z: 375.21732
Precursor type: [M+H]+
m/z	relative intensity
83.0868	60
91.0553	999
93.0702	111
95.0868	88
107.049	75
115.0558	176
117.0708	685
118.0757	28
121.065	46
129.0709	509
131.0868	174
133.1016	39
141.0706	493
142.0769	62
143.0862	424
153.0701	64
155.0871	276
157.0987	70
165.0706	176
166.08	87
167.0859	517
169.1019	237
178.0783	142
179.0858	406
181.1016	280
182.1055	47
193.101	436
205.1004	252
206.1043	48
217.1231	45
219.1193	112
223.115	113
293.1904	98
304.178	22
309.1846	32
321.1846	473
322.1866	84
339.1947	73
340.1123	107
377.143	103
