Mass spectrum: Ellagic acid; LC-ESI-QTOF; MS2; CE: 15.07 / 15.08;  [M-H]-
Name: Ellagic acid
Class: NA
Formula: C14H6O8
Exact mass: 302.0063
SMILES: C1=C2C3=C(C(=C1O)O)OC(=O)C4=CC(=C(C(=C43)OC2=O)O)O
InChI: InChI=1S/C14H6O8/c15-5-1-3-7-8-4(14(20)22-11(7)9(5)17)2-6(16)10(18)12(8)21-13(3)19/h1-2,15-18H
Instrument: Bruker MicrOTOF-Q
Instrument type: LC-ESI-QTOF
Ms type: MS2
Ion mode: NEGATIVE
Ionization: ESI
Collision energy: 15.07 / 15.08
Column name: Acquity CSHC18
Retention time: NA
Base peak: 300.9990
Precursor m/z: 300.9990
Precursor type: [M-H]-
m/z	relative intensity
185.0241	18
186.0293	1
198.9993	1
200.0124	6
201.0194	20
213.0103	2
217.0153	4
226.9913	1
227.9922	1
228.019	1
229.0141	57
230.0208	7
243.9902	1
245.0082	16
246.0174	2
254.9979	3
255.2359	1
257.0065	25
258.0206	1
271.9863	2
273.0045	1
273.0063	1
282.9886	1
283.9941	25
292.6397	1
299.4043	2
299.9894	25
300.2362	1
300.8094	4
300.9972	999
301.5462	1
302.0009	135
302.9937	3
