Mass spectrum: Homovanillic acid; LC-ESI-QTOF; MS2; CE: -10, -35, -60V;  [M-H]-
Name: Homovanillic acid
Class: NA
Formula: C9H10O4
Exact mass: 182.0579
SMILES: COC1=C(C=CC(=C1)CC(=O)O)O
InChI: InChI=1S/C9H10O4/c1-13-8-4-6(5-9(11)12)2-3-7(8)10/h2-4,10H,5H2,1H3,(H,11,12)
Instrument: TripleToF 5600; Sciex
Instrument type: LC-ESI-QTOF
Ms type: MS2
Ion mode: NEGATIVE
Ionization: ESI
Collision energy: -10, -35, -60V
Column name: Acquity CSHC18
Retention time: 7.865 min
Base peak: 181.0507
Precursor m/z: 181.0507
Precursor type: [M-H]-
Precursor intensity: 81566.81
m/z	relative intensity
109.0232	53
122.0331	54
135.0435	19
137.0225	125
137.0572	267
151.0423	28
153.051	22
179.0333	67
181.0486	999
