Mass spectrum: 6-HYDROXYNICOTINATE; LC-ESI-QTOF; MS2; CE: 40;  [M+H]+
Name: 6-HYDROXYNICOTINATE
Class: NA
Formula: C6H5NO3
Exact mass: 139.02694
SMILES: OC(=O)C1=CN=C(O)C=C1
InChI: InChI=1S/C6H5NO3/c8-5-2-1-4(3-7-5)6(9)10/h1-3H,(H,7,8)(H,9,10)
Instrument: Agilent 6530Â Q-TOF LC/MS
Instrument type: LC-ESI-QTOF
Ms type: MS2
Ion mode: POSITIVE
Ionization: ESI
Collision energy: 40
Column name: NA
Retention time: 0.200 min
Base peak: 140.03727
Precursor m/z: 140.03727
Precursor type: [M+H]+
Precursor intensity: 131.5
m/z	relative intensity
40.0163	48
41.025	49
45.018	53
50.0299	57
51.0444	59
52.0318	113
54.0239	119
66.0364	121
76.0287	210
77.0365	212
78.0585	256
80.0149	272
94.0462	421
95.0353	999
