Mass spectrum: acyl sugar_S4:23 (2,4,5,12); LC-ESI-ITFT; MS2; CE: 35 NCE;  [M+FA-H]-
Name: acyl sugar_S4:23 (2,4,5,12)
Class: acyl sugar
Formula: C35H60O15
Exact mass: 720.3932
SMILES: CCCCCCCCCCCC(=O)OC1C(C(OC1(CO)OC2C(C(C(C(O2)CO)OC(=O)CC(C)C)OC(=O)C(C)C)OC(=O)C)CO)O
InChI: InChI=1S/C35H60O15/c1-7-8-9-10-11-12-13-14-15-16-26(40)47-32-28(42)24(18-36)49-35(32,20-38)50-34-31(44-23(6)39)30(48-33(43)22(4)5)29(25(19-37)45-34)46-27(41)17-21(2)3/h21-22,24-25,28-32,34,36-38,42H,7-20H2,1-6H3
Instrument: LTQ Orbitrap XL, Thermo Scientfic; Aquity (U)HPLC, Waters
Instrument type: LC-ESI-ITFT
Ms type: MS2
Ion mode: NEGATIVE
Ionization: ESI
Collision energy: 35 NCE
Column name: Acquity CSHC18
Retention time: 41.396 min
Base peak: 765.3907
Precursor m/z: 765.3907
Precursor type: [M+FA-H]-
Precursor intensity: 486539.5
m/z	relative intensity
313.947	69
453.1613	138
525.6726	744
537.2184	96
593.3157	999
