Mass spectrum: m-Aminobenzoic acid; ESI-TOF; MS2; CE: 6.0000000;  [M+H]+
Name: m-Aminobenzoic acid
Class: NA
Formula: C7H7NO2
Exact mass: 137.04768
SMILES: NC1=CC=CC(=C1)C(O)=O
InChI: InChI=1S/C7H7NO2/c8-6-3-1-2-5(4-6)7(9)10/h1-4H,8H2,(H,9,10)
Instrument: waters xevo g2 TOF
Instrument type: ESI-TOF
Ms type: MS2
Ion mode: POSITIVE
Ionization: ESI
Collision energy: 6.0000000
Column name: Acquity CSHC18
Retention time: 0.899 min
Base peak: 138.05568
Precursor m/z: 138.05568
Precursor type: [M+H]+
m/z	relative intensity
129.0527	1
131.9513	1
131.9514	1
135.9927	1
137.0476	4
138.0556	604
138.0557	999
139.0587	60
139.059	34
140.0609	6
140.0612	3
142.9649	4
149.9614	1
191.0221	1
271.072	1
