Mass spectrum: (-)-JA-L-Ile; LC-ESI-QTOF; MS2; CE: -10, -35, -60V;  [M-H]-
Name: (-)-JA-L-Ile
Class: NA
Formula: C18H29NO4
Exact mass: 323.2097
SMILES: CCC=CCC1C(CCC1=O)CC(=O)NC(C(C)CC)C(=O)O
InChI: InChI=1S/C18H29NO4/c1-4-6-7-8-14-13(9-10-15(14)20)11-16(21)19-17(18(22)23)12(3)5-2/h6-7,12-14,17H,4-5,8-11H2,1-3H3,(H,19,21)(H,22,23)
Instrument: TripleToF 5600; Sciex
Instrument type: LC-ESI-QTOF
Ms type: MS2
Ion mode: NEGATIVE
Ionization: ESI
Collision energy: -10, -35, -60V
Column name: Acquity CSHC18
Retention time: 17.350 min
Base peak: 322.2038
Precursor m/z: 322.2038
Precursor type: [M-H]-
Precursor intensity: 978161.1
m/z	relative intensity
82.0664	29
95.049	8
128.1085	225
130.0879	999
131.0913	8
165.1299	19
172.088	9
172.0973	192
321.1788	9
322.2068	326
