Mass spectrum: Succinic GSH; LC-ESI-QTOF; MS2; CE: 15 / 50;  [M-H]-
Name: Succinic GSH
Class: NA
Formula: C14H21N3O10S
Exact mass: 423.09476
SMILES: C(CC(=O)NC(CSC(CC(=O)O)C(=O)O)C(=O)NCC(=O)O)C(C(=O)O)N
InChI: InChI=1S/C14H21N3O10S/c15-6(13(24)25)1-2-9(18)17-7(12(23)16-4-11(21)22)5-28-8(14(26)27)3-10(19)20/h6-8H,1-5,15H2,(H,16,23)(H,17,18)(H,19,20)(H,21,22)(H,24,25)(H,26,27)
Instrument: impact II
Instrument type: LC-ESI-QTOF
Ms type: MS2
Ion mode: NEGATIVE
Ionization: ESI
Collision energy: 15 / 50
Column name: Acquity CSHC18
Retention time: 0.677 min
Base peak: 422.08810
Precursor m/z: 422.08810
Precursor type: [M-H]-
m/z	relative intensity
272.5903	524
306.5777	731
422.5887	999
