Mass spectrum: 15(R)-15-methyl Prostaglandin D2; ESI-TOF; MS2; CE: 6.0000000;  [M+H]+
Name: 15(R)-15-methyl Prostaglandin D2
Class: NA
Formula: C21H34O5
Exact mass: 366.24062
SMILES: CCCCC[C@@](C)(O)\C=C\[C@H]1C(=O)CC(O)C1C/C=C\CCCC(=O)O
InChI: InChI=1S/C21H34O5/c1-3-4-9-13-21(2,26)14-12-17-16(18(22)15-19(17)23)10-7-5-6-8-11-20(24)25/h5,7,12,14,16-18,22,26H,3-4,6,8-11,13,15H2,1-2H3,(H,24,25)/b7-5-,14-12+/t16?,17-,18?,21-/m1/s1
Instrument: waters xevo g2 TOF
Instrument type: ESI-TOF
Ms type: MS2
Ion mode: POSITIVE
Ionization: ESI
Collision energy: 6.0000000
Column name: Acquity CSHC18
Retention time: 3.721 min
Base peak: 367.24862
Precursor m/z: 367.24862
Precursor type: [M+H]+
m/z	relative intensity
131.086	2
157.104	1
169.1019	1
173.0943	4
177.0911	4
185.1127	14
187.1307	15
194.0966	52
194.5976	19
201.1649	4
203.1421	23
214.6088	7
219.1014	9
221.1442	19
223.1709	5
229.1599	19
233.1158	6
247.1695	128
248.1731	22
285.2239	15
287.1974	11
289.2146	7
295.2058	39
296.208	4
303.232	18
307.2246	5
311.1789	2
313.2172	332
314.2219	73
315.2235	6
322.1261	22
331.2282	997
332.2301	228
349.2362	999
350.2418	240
351.2439	31
366.2625	2
