Mass spectrum: CYCLIC AMP; LC-ESI-QTOF; MS2; CE: 10;  [M+H]+
Name: CYCLIC AMP
Class: NA
Formula: C10H12N5O6P
Exact mass: 329.05252
SMILES: [H][C@@]12COP(O)(=O)O[C@@]1([H])[C@@H](O)[C@@H](O2)N1C=NC2=C1N=CN=C2N
InChI: InChI=1S/C10H12N5O6P/c11-8-5-9(13-2-12-8)15(3-14-5)10-6(16)7-4(20-10)1-19-22(17,18)21-7/h2-4,6-7,10,16H,1H2,(H,17,18)(H2,11,12,13)/t4-,6-,7-,10-/m1/s1
Instrument: Agilent 6530Â Q-TOF LC/MS
Instrument type: LC-ESI-QTOF
Ms type: MS2
Ion mode: POSITIVE
Ionization: ESI
Collision energy: 10
Column name: NA
Retention time: 0.200 min
Base peak: 330.06182
Precursor m/z: 330.06182
Precursor type: [M+H]+
Precursor intensity: 37.5
m/z	relative intensity
69.0372	32
92.0367	34
97.0438	34
111.8923	35
119.0319	36
134.9771	37
136.1121	38
136.2986	39
137.0692	39
176.9977	39
186.07	48
190.0784	62
204.0917	64
214.0684	66
216.2499	69
232.1005	103
250.0771	151
312.0709	276
330.5708	545
331.3832	999
