Mass spectrum: ASPARTATE; LC-ESI-QTOF; MS2; CE: 20;  [M+H]+
Name: ASPARTATE
Class: NA
Formula: C4H7NO4
Exact mass: 133.0375
SMILES: N[C@@H](CC(O)=O)C(O)=O
InChI: InChI=1S/C4H7NO4/c5-2(4(8)9)1-3(6)7/h2H,1,5H2,(H,6,7)(H,8,9)/t2-/m0/s1
Instrument: Agilent 6530Â Q-TOF LC/MS
Instrument type: LC-ESI-QTOF
Ms type: MS2
Ion mode: POSITIVE
Ionization: ESI
Collision energy: 20
Column name: NA
Retention time: 0.200 min
Base peak: 134.04472
Precursor m/z: 134.04472
Precursor type: [M+H]+
Precursor intensity: 194.5
m/z	relative intensity
43.0188	54
46.0296	194
64.9278	219
70.03	256
74.0233	407
88.0388	987
134.076	999
