Mass spectrum: 2-Hydroxybutyric acid; LC-ESI-ITFT; MS2; CE: 10;  [M-H]-
Name: 2-Hydroxybutyric acid
Class: Organic acids and derivatives; Hydroxy acids and derivatives; Alpha hydroxy acids and derivatives
Formula: C4H8O3
Exact mass: 104.04734
SMILES: CCC(O)C(O)=O
InChI: InChI=1S/C4H8O3/c1-2-3(5)4(6)7/h3,5H,2H2,1H3,(H,6,7)
Instrument: Thermo Scientific Q-Exactive Focus
Instrument type: LC-ESI-ITFT
Ms type: MS2
Ion mode: NEGATIVE
Ionization: ESI
Collision energy: 10
Column name: Acquity CSHC18
Retention time: 0.365 min
Base peak: 103.04007
Precursor m/z: 103.04007
Precursor type: [M-H]-
m/z	relative intensity
56.5404	3
57.0334	843
57.9807	2
63.289	2
73.7426	2
85.0283	21
92.5136	3
101.0232	24
103.0388	999
108.4807	2
