Mass spectrum: Caffeine; LC-ESI-ITFT; MS2; CE: 45eV;  [M+H]+
Name: Caffeine
Class: alkaloid
Formula: C8H10N4O2
Exact mass: 194.0804
SMILES: CN1C=NC2=C1C(=O)N(C(=O)N2C)C
InChI: InChI=1S/C8H10N4O2/c1-10-4-9-6-5(10)7(13)12(3)8(14)11(6)2/h4H,1-3H3
Instrument: LTQ Orbitrap XL, Thermo Scientfic; Dionex Ultimate 300
Instrument type: LC-ESI-ITFT
Ms type: MS2
Ion mode: POSITIVE
Ionization: ESI
Collision energy: 45eV
Column name: Alltima C18 150*2.1 5Âµm, GRACE ALLTECH
Retention time: 30.095 min
Base peak: 195.0861
Precursor m/z: 195.0861
Precursor type: [M+H]+
m/z	relative intensity
106.775	53
135.9045	27
151.0042	999
180.0358	93
