Mass spectrum: L-Gulonolactone; LC-ESI-ITFT; MS2; CE: 60;  [M-H]-
Name: L-Gulonolactone
Class: Organoheterocyclic compounds; Lactones; Gamma butyrolactones
Formula: C6H10O6
Exact mass: 178.04774
SMILES: [H][C@@]1(OC(=O)[C@@H](O)[C@H]1O)[C@@H](O)CO
InChI: InChI=1S/C6H10O6/c7-1-2(8)5-3(9)4(10)6(11)12-5/h2-5,7-10H,1H2/t2-,3+,4-,5+/m0/s1
Instrument: Thermo Scientific Q-Exactive Focus
Instrument type: LC-ESI-ITFT
Ms type: MS2
Ion mode: NEGATIVE
Ionization: ESI
Collision energy: 60
Column name: Acquity CSHC18
Retention time: 1.761 min
Base peak: 177.04047
Precursor m/z: 177.04047
Precursor type: [M-H]-
m/z	relative intensity
59.0126	999
64.0799	466
77.6365	415
107.8077	428
111.7973	464
120.2014	421
122.3968	427
141.3518	467
181.2377	427
184.2986	423
