Mass spectrum: Picolinic acid; LC-ESI-ITFT; MS2; CE: 100;  [M-H]-
Name: Picolinic acid
Class: Organoheterocyclic compounds; Pyridines and derivatives; Pyridinecarboxylic acids and derivatives
Formula: C6H5NO2
Exact mass: 123.03203
SMILES: OC(=O)C1=CC=CC=N1
InChI: InChI=1S/C6H5NO2/c8-6(9)5-3-1-2-4-7-5/h1-4H,(H,8,9)
Instrument: Thermo Scientific Q-Exactive Focus
Instrument type: LC-ESI-ITFT
Ms type: MS2
Ion mode: NEGATIVE
Ionization: ESI
Collision energy: 100
Column name: Acquity CSHC18
Retention time: 2.582 min
Base peak: 122.02475
Precursor m/z: 122.02475
Precursor type: [M-H]-
m/z	relative intensity
65.4361	958
76.3184	949
78.8944	979
81.0731	960
95.1047	910
95.5546	999
95.7249	974
113.5469	915
132.6788	940
138.2805	996
