Mass spectrum: Hydroxykynurenine; LC-ESI-ITFT; MS2; CE: 100;  [M-H]-
Name: Hydroxykynurenine
Class: Organic oxygen compounds; Organooxygen compounds; Carbonyl compounds
Formula: C10H12N2O4
Exact mass: 224.07971
SMILES: NC(CC(=O)C1=C(N)C(O)=CC=C1)C(O)=O
InChI: InChI=1S/C10H12N2O4/c11-6(10(15)16)4-8(14)5-2-1-3-7(13)9(5)12/h1-3,6,13H,4,11-12H2,(H,15,16)
Instrument: Thermo Scientific Q-Exactive Focus
Instrument type: LC-ESI-ITFT
Ms type: MS2
Ion mode: NEGATIVE
Ionization: ESI
Collision energy: 100
Column name: Acquity CSHC18
Retention time: 2.582 min
Base peak: 223.07243
Precursor m/z: 223.07243
Precursor type: [M-H]-
m/z	relative intensity
65.0021	999
89.0887	645
95.1994	630
108.8712	676
118.5464	614
121.8101	665
137.6664	668
172.1685	703
193.6133	643
238.34	800
