Mass spectrum: Atenolol; ESI-TOF; MS2; CE: 0.6458333;  [M+H]+
Name: Atenolol
Class: NA
Formula: C14H22N2O3
Exact mass: 266.16304
SMILES: CC(C)NCC(O)COC1=CC=C(CC(N)=O)C=C1
InChI: InChI=1S/C14H22N2O3/c1-10(2)16-8-12(17)9-19-13-5-3-11(4-6-13)7-14(15)18/h3-6,10,12,16-17H,7-9H2,1-2H3,(H2,15,18)
Instrument: waters xevo g2 TOF
Instrument type: ESI-TOF
Ms type: MS2
Ion mode: POSITIVE
Ionization: ESI
Collision energy: 0.6458333
Column name: Acquity CSHC18
Retention time: 0.590 min
Base peak: 267.17104
Precursor m/z: 267.17104
Precursor type: [M+H]+
m/z	relative intensity
72.0814	119
72.9379	18
74.0606	190
75.0635	5
98.0967	166
99.0999	10
101.9404	13
105.0701	4
107.0496	14
116.1072	245
117.07	20
119.0494	26
121.065	46
131.0343	4
133.065	122
145.0653	668
146.0685	69
147.0447	29
152.0712	15
161.0603	5
162.0917	93
164.0713	90
165.075	9
173.0604	86
178.0866	143
179.0903	16
180.1021	101
181.1048	8
190.0866	485
191.0899	63
192.0928	5
204.1388	11
207.1132	6
208.0971	173
209.1	15
209.1008	23
225.1238	234
226.1274	30
249.1607	14
250.1457	13
267.1709	999
268.1742	159
269.1767	19
