Mass spectrum: Esculin; LC-ESI-QTOF; MS2; CE: 50eV;  [M+H]+
Name: Esculin
Class: Coumarin
Formula: C15H16O9
Exact mass: 340.0794
SMILES: C1=CC(=O)OC2=CC(=C(C=C21)OC3C(C(C(C(O3)CO)O)O)O)O
InChI: InChI=1S/C15H16O9/c16-5-10-12(19)13(20)14(21)15(24-10)23-9-3-6-1-2-11(18)22-8(6)4-7(9)17/h1-4,10,12-17,19-21H,5H2
Instrument: TIMS-TOF Pro, Bruker Daltonik; Elute UHPLC System, Bruker Daltonik
Instrument type: LC-ESI-QTOF
Ms type: MS2
Ion mode: POSITIVE
Ionization: ESI
Collision energy: 50eV
Column name: Acquity CSHC18
Retention time: 3.761 min
Base peak: 341.0862
Precursor m/z: 341.0862
Precursor type: [M+H]+
Precursor intensity: 148549.9
m/z	relative intensity
32.3045	3
45.0336	3
64.4066	5
69.0338	23
74.0317	3
77.039	8
81.029	8
85.029	25
87.0333	4
87.0437	5
97.0281	15
102.2412	5
105.0339	19
115.6762	4
123.044	369
124.0475	10
125.0514	3
127.0375	15
128.0661	2
131.8425	2
133.0184	11
134.0304	9
135.0444	22
136.0622	6
140.2751	5
145.0486	10
151.0386	79
178.6045	4
179.0034	36
179.031	999
179.2518	6
179.4133	39
180.0195	6
180.0365	335
180.4668	2
181.0385	10
