Mass spectrum: 15(S)-15-methyl Prostaglandin E2; ESI-TOF; MS2; CE: 0.6458333;  [M+H]+
Name: 15(S)-15-methyl Prostaglandin E2
Class: NA
Formula: C21H34O5
Exact mass: 366.24062
SMILES: O[C@H]1[C@H](/C=C/[C@](O)(C)CCCCC)[C@@H](C/C=C\CCCC(O)=O)C(C1)=O
InChI: InChI=1S/C21H34O5/c1-3-4-9-13-21(2,26)14-12-17-16(18(22)15-19(17)23)10-7-5-6-8-11-20(24)25/h5,7,12,14,16-17,19,23,26H,3-4,6,8-11,13,15H2,1-2H3,(H,24,25)/b7-5-,14-12+/t16-,17-,19-,21+/m1/s1
Instrument: waters xevo g2 TOF
Instrument type: ESI-TOF
Ms type: MS2
Ion mode: POSITIVE
Ionization: ESI
Collision energy: 0.6458333
Column name: Acquity CSHC18
Retention time: 3.709 min
Base peak: 367.24862
Precursor m/z: 367.24862
Precursor type: [M+H]+
m/z	relative intensity
69.0704	221
95.0857	301
97.1041	104
121.1016	248
128.9902	20
143.0876	807
149.0975	541
167.107	20
171.1188	402
173.0965	928
175.0927	20
199.1473	347
201.0919	408
205.0554	126
207.1109	20
213.1657	118
215.107	20
217.1198	290
219.1059	281
221.0853	236
223.0277	121
229.1588	671
230.1604	20
235.1349	20
237.1125	20
241.1954	552
243.2103	281
247.1696	20
249.183	20
251.1786	210
259.2055	20
261.2181	20
267.209	260
269.1887	232
277.2047	316
279.2346	20
285.2207	186
287.2024	99
295.2058	999
296.2094	186
303.2327	20
306.217	20
313.1707	790
314.2201	454
315.2241	20
331.2283	946
332.2324	111
333.2318	20
349.2315	230
350.2411	20
368.2107	20
368.7121	20
369.2122	20
