Mass spectrum: L-Methionine; LC-ESI-ITFT; MS2; CE: 20;  [M+H]+
Name: L-Methionine
Class: Organic acids and derivatives; Carboxylic acids and derivatives; Amino acids, peptides, and analogues
Formula: C5H11NO2S
Exact mass: 149.05105
SMILES: CSCC[C@H](N)C(O)=O
InChI: InChI=1S/C5H11NO2S/c1-9-3-2-4(6)5(7)8/h4H,2-3,6H2,1H3,(H,7,8)/t4-/m0/s1
Instrument: Thermo Scientific Q-Exactive Focus
Instrument type: LC-ESI-ITFT
Ms type: MS2
Ion mode: POSITIVE
Ionization: ESI
Collision energy: 20
Column name: Acquity CSHC18
Retention time: NA
Base peak: 150.05833
Precursor m/z: 150.05833
Precursor type: [M+H]+
m/z	relative intensity
56.0501	940
61.0112	999
74.0241	103
74.0605	32
84.0448	19
87.0267	104
102.0553	51
104.0531	73
133.0318	49
150.1277	36
