Mass spectrum: Disinapoyl.glucoside; LC-ESI-ITFT; MS2; CE: 30;  [M+H]+
Name: Disinapoyl.glucoside
Class: NA
Formula: C28H32O14
Exact mass: 592.1792
SMILES: COC1=CC(=CC(=C1O)OC)C=CC(=O)OC2C(C(C(OC2OC(=O)C=CC3=CC(=C(C(=C3)OC)O)OC)CO)O)O
InChI: InChI=1S/C28H32O14/c1-36-16-9-14(10-17(37-2)23(16)32)5-7-21(30)41-27-26(35)25(34)20(13-29)40-28(27)42-22(31)8-6-15-11-18(38-3)24(33)19(12-15)39-4/h5-12,20,25-29,32-35H,13H2,1-4H3
Instrument: q exactive focus thermo
Instrument type: LC-ESI-ITFT
Ms type: MS2
Ion mode: POSITIVE
Ionization: ESI
Collision energy: 30
Column name: Acquity CSHC18
Retention time: 8.237 min
Base peak: 593.1873
Precursor m/z: 593.1873
Precursor type: [M+H]+
Precursor intensity: 5475724
m/z	relative intensity
103.042	47
105.0395	50
108.9996	57
119.0551	60
127.0574	61
128.0563	72
129.0383	77
131.0679	84
131.9636	85
133.0839	98
144.0867	122
145.0607	161
147.0548	274
148.9872	759
177.0992	999
