Mass spectrum: Rhoeadine; ESI-QTOF; MS2; CE: 1, 35, 60;  [M+H]+
Name: Rhoeadine
Class: Benzylisoquinoline alkaloid
Formula: C21H21NO6
Exact mass: 383.1369
SMILES: CN1CCC2=CC3=C(C=C2C4C1C5=C(C(O4)OC)C6=C(C=C5)OCO6)OCO3
InChI: InChI=1S/C21H21NO6/c1-22-6-5-11-7-15-16(26-9-25-15)8-13(11)19-18(22)12-3-4-14-20(27-10-24-14)17(12)21(23-2)28-19/h3-4,7-8,18-19,21H,5-6,9-10H2,1-2H3
Instrument: AB Sciex TripleToF 5500
Instrument type: ESI-QTOF
Ms type: MS2
Ion mode: POSITIVE
Ionization: ESI
Collision energy: 1, 35, 60
Column name: Acquity CSHC18
Retention time: 5.975 min
Base peak: 384.1393
Precursor m/z: 384.1393
Precursor type: [M+H]+
Precursor intensity: 1066589
m/z	relative intensity
132.0607	103
163.0525	125
177.0635	130
187.0527	140
191.0689	144
192.0674	153
203.0676	161
204.0697	162
207.0796	168
217.0634	179
234.0793	180
245.0743	205
246.0754	205
247.0641	206
249.0631	209
250.0723	224
261.0628	229
264.0859	245
276.0919	252
277.091	302
292.0915	338
293.0719	362
294.0891	362
303.0635	391
304.0745	422
309.0801	881
322.0924	999
