Mass spectrum: PC 36:4; LC-ESI-QTOF; MS2; CE: 20-40eV;  [M+Na]+
Name: PC 36:4
Class: Phosphatidylcholine lipid
Formula: C44H80NO8P
Exact mass: 781.5622
SMILES: CCCCCC(=C(CC(=C(CC(=C(CCCCC(=O)OCC(COP(=O)([O-])OCC[N+](C)(C)C)(OC(CCCCCCCC(=C(CCCCCCCC)[H])[H])=O)[H])[H])[H])[H])[H])[H])[H]
InChI: InChI=1S/C44H80NO8P/c1-6-8-10-12-14-16-18-20-22-24-26-28-30-32-34-36-43(46)50-40-42(41-52-54(48,49)51-39-38-45(3,4)5)53-44(47)37-35-33-31-29-27-25-23-21-19-17-15-13-11-9-7-2/h14,16,20-23,26,28,42H,6-13,15,17-19,24-25,27,29-41H2,1-5H3
Instrument: Impact II, Bruker; Dionex 3000, Thermo Scientific
Instrument type: LC-ESI-QTOF
Ms type: MS2
Ion mode: POSITIVE
Ionization: ESI
Collision energy: 20-40eV
Column name: Acquity CSHC18
Retention time: 28.640 min
Base peak: 804.5491
Precursor m/z: 804.5491
Precursor type: [M+Na]+
Precursor intensity: 46482.88
m/z	relative intensity
97.0826	999
