Mass spectrum: SPERMIDINE; LC-ESI-QFT; MS2; CE: 30eV;  [M+H]+
Name: SPERMIDINE
Class: NA
Formula: C7H19N3
Exact mass: 145.15790
SMILES: NCCCCNCCCN
InChI: InChI=1S/C7H19N3/c8-4-1-2-6-10-7-3-5-9/h10H,1-9H2
Instrument: Q-Exactive Orbitrap, Thermo Scientfic; Ultimate 3000 HPLC, Thermo Scientfic
Instrument type: LC-ESI-QFT
Ms type: MS2
Ion mode: POSITIVE
Ionization: ESI
Collision energy: 30eV
Column name: Acquity CSHC18
Retention time: 0.526 min
Base peak: 146.1652
Precursor m/z: 146.1652
Precursor type: [M+H]+
Precursor intensity: 188
m/z	relative intensity
51.9562	8
53.7377	7
54.5025	8
55.0086	8
55.0551	10
55.3451	8
58.066	615
58.5417	8
59.9311	8
60.939	24
66.2854	8
66.3366	9
73.0786	16
73.0849	223
75.0925	999
76.096	20
81.043	8
82.0659	23
84.0816	342
89.1081	9
100.0765	17
101.9645	13
113.116	96
118.968	155
119.9758	201
128.0712	54
129.0747	14
130.1364	15
130.1427	95
145.1785	75
146.0816	46
147.1631	19
147.1692	117
