Mass spectrum: 1-Stearoyl-2-Hydroxy-sn-Glycero-3-Phosphoethanolamine; ESI-TOF; MS2; CE: 6.0000000;  [M+H]+
Name: 1-Stearoyl-2-Hydroxy-sn-Glycero-3-Phosphoethanolamine
Class: NA
Formula: C23H48NO7P
Exact mass: 481.31684
SMILES: [H]OC([H])(C([H])([H])OC(=O)C([H])([H])C([H])([H])C([H])([H])C([H])([H])C([H])([H])C([H])([H])C([H])([H])C([H])([H])C([H])([H])C([H])([H])C([H])([H])C([H])([H])C([H])([H])C([H])([H])C([H])([H])C([H])([H])C([H])([H])[H])C([H])([H])OP(=O)([O-])OC([H])([H])C([H])([H])[N+]([H])([H])[H]
InChI: InChI=1S/C23H48NO7P/c1-2-3-4-5-6-7-8-9-10-11-12-13-14-15-16-17-23(26)29-20-22(25)21-31-32(27,28)30-19-18-24/h22,25H,2-21,24H2,1H3,(H,27,28)
Instrument: waters xevo g2 TOF
Instrument type: ESI-TOF
Ms type: MS2
Ion mode: POSITIVE
Ionization: ESI
Collision energy: 6.0000000
Column name: Acquity CSHC18
Retention time: 7.288 min
Base peak: 482.32484
Precursor m/z: 482.32484
Precursor type: [M+H]+
m/z	relative intensity
192.9582	1
216.0641	5
260.6406	7
269.9816	2
310.3112	9
341.3055	197
342.3089	45
343.3111	4
421.2719	31
422.2754	4
459.2188	101
460.2216	36
461.23	4
464.3114	141
465.3175	74
466.3184	12
470.7717	6
471.2743	4
475.1937	3
477.2278	31
478.2284	5
479.7745	4
480.2772	3
482.3235	999
483.3276	265
