Mass spectrum: URATE; LC-ESI-QTOF; MS2; CE: 20;  [M-H]-
Name: URATE
Class: NA
Formula: C5H4N4O3
Exact mass: 168.02834
SMILES: O=C1NC2=C(N1)C(=O)NC(=O)N2
InChI: InChI=1S/C5H4N4O3/c10-3-1-2(7-4(11)6-1)8-5(12)9-3/h(H4,6,7,8,9,10,11,12)
Instrument: Agilent 6530Â Q-TOF LC/MS
Instrument type: LC-ESI-QTOF
Ms type: MS2
Ion mode: NEGATIVE
Ionization: ESI
Collision energy: 20
Column name: NA
Retention time: 0.200 min
Base peak: 167.02023
Precursor m/z: 167.02023
Precursor type: [M-H]-
Precursor intensity: 198
m/z	relative intensity
42.0082	147
69.0172	233
96.0262	267
97.0065	339
124.035	572
167.0287	999
