Mass spectrum: tiliroside; LC-ESI-ITFT; MS2; CE: 0.3;  [M-H]-
Name: tiliroside
Class: flavonols
Formula: C30H26O13
Exact mass: 594.1373
SMILES: C1=CC(=CC=C1C=CC(=O)OCC2C(C(C(C(O2)OC3=C(OC4=CC(=CC(=C4C3=O)O)O)C5=CC=C(C=C5)O)O)O)O)O
InChI: InChI=1S/C30H26O13/c31-16-6-1-14(2-7-16)3-10-22(35)40-13-21-24(36)26(38)27(39)30(42-21)43-29-25(37)23-19(34)11-18(33)12-20(23)41-28(29)15-4-8-17(32)9-5-15/h1-12,21,24,26-27,30-34,36,38-39H,13H2
Instrument: LTQ-Orbitrap XL hybrid mass spectrometer (Thermo Scientific)
Instrument type: LC-ESI-ITFT
Ms type: MS2
Ion mode: NEGATIVE
Ionization: ESI
Collision energy: 0.3
Column name: Acquity CSHC18
Retention time: 8.687 min
Base peak: 593.1290
Precursor m/z: 593.1290
Precursor type: [M-H]-
Precursor intensity: 22403620
m/z	relative intensity
153.7366	1
161.1032	2
181.6027	1
187.0403	2
187.76	1
194.4914	1
195.3014	1
196.1547	4
213.0558	4
227.0349	2
229.0505	4
239.0349	3
240.0422	1
241.0501	4
247.0609	2
255.0295	15
256.0353	1
257.0451	20
267.0296	2
269.6795	1
280.2163	1
281.5821	2
281.8566	2
282.268	3
282.9576	7
283.0243	2
283.6486	4
283.9258	3
284.0324	56
284.0648	1
285.0022	4
285.0399	999
285.0675	4
285.0984	2
285.7385	1
286.0431	116
286.4014	3
286.4115	1
286.424	2
286.442	2
307.0815	70
308.0849	7
310.9183	1
323.7928	1
323.8	1
327.0502	11
328.0533	2
351.5592	1
357.0605	1
429.0818	6
434.1153	1
447.0922	141
448.0956	24
456.8322	1
478.5105	2
593.1265	2
