Mass spectrum: 6-Hydroxy-7-methoxychromen-2-one; LC-ESI-ITFT; MS2; CE: 45eV;  [M+H]+
Name: 6-Hydroxy-7-methoxychromen-2-one
Class: coumarin
Formula: C10H8O4
Exact mass: 192.0423
SMILES: COC1=C(C=C2C=CC(=O)OC2=C1)O
InChI: InChI=1S/C10H8O4/c1-13-9-5-8-6(4-7(9)11)2-3-10(12)14-8/h2-5,11H,1H3
Instrument: LTQ Orbitrap XL, Thermo Scientfic; Dionex Ultimate 300
Instrument type: LC-ESI-ITFT
Ms type: MS2
Ion mode: POSITIVE
Ionization: ESI
Collision energy: 45eV
Column name: Alltima C18
Retention time: 15.7 min
Base peak: 193.0481
Precursor m/z: 193.0481
Precursor type: [M+H]+
m/z	relative intensity
88.9157	2
132.8659	999
160.9182	6
