Mass spectrum: DEOXYURIDINE; LC-ESI-QFT; MS2; CE: 30eV;  [M-H]-
Name: DEOXYURIDINE
Class: NA
Formula: C9H12N2O5
Exact mass: 228.07462
SMILES: OC[C@H]1O[C@H](C[C@@H]1O)N1C=CC(=O)NC1=O
InChI: InChI=1S/C9H12N2O5/c12-4-6-5(13)3-8(16-6)11-2-1-7(14)10-9(11)15/h1-2,5-6,8,12-13H,3-4H2,(H,10,14,15)/t5-,6+,8+/m0/s1
Instrument: Q-Exactive Orbitrap, Thermo Scientfic; Ultimate 3000 HPLC, Thermo Scientfic
Instrument type: LC-ESI-QFT
Ms type: MS2
Ion mode: NEGATIVE
Ionization: ESI
Collision energy: 30eV
Column name: Acquity CSHC18
Retention time: 1.057 min
Base peak: 227.0673
Precursor m/z: 227.0673
Precursor type: [M-H]-
Precursor intensity: 124
m/z	relative intensity
52.2151	4
52.9483	4
61.9868	6
66.0333	51
68.9464	4
83.8107	5
92.0489	7
93.9075	9
94.0281	537
95.0314	7
107.6912	5
109.8673	5
110.0594	6
111.007	12
111.0184	12
112.0386	33
114.5882	5
115.229	4
125.8975	7
136.0388	121
137.034	13
137.8975	26
154.0493	6
155.9142	26
173.9252	33
177.4372	6
178.7341	5
180.8298	11
183.9689	9
184.0602	999
185.0636	56
191.9833	6
192.9233	6
227.0663	76
231.5193	5
