Mass spectrum: 5-Geranyloxy-7-methoxycoumarin; LC-ESI-ITFT; MS2; CE: 45eV;  [M+H]+
Name: 5-Geranyloxy-7-methoxycoumarin
Class: coumarin
Formula: C20H24O4
Exact mass: 328.1675
SMILES: CC(=CCCC(=CCOC1=C2C=CC(=O)OC2=CC(=C1)OC)C)C
InChI: InChI=1S/C20H24O4/c1-14(2)6-5-7-15(3)10-11-23-18-12-16(22-4)13-19-17(18)8-9-20(21)24-19/h6,8-10,12-13H,5,7,11H2,1-4H3
Instrument: LTQ Orbitrap XL, Thermo Scientfic; Dionex Ultimate 300
Instrument type: LC-ESI-ITFT
Ms type: MS2
Ion mode: POSITIVE
Ionization: ESI
Collision energy: 45eV
Column name: Alltima C18
Retention time: 27 min
Base peak: 329.1735
Precursor m/z: 329.1735
Precursor type: [M+H]+
m/z	relative intensity
125.0527	7
188.1896	5
203.167	6
217.0179	3
219.1011	350
231.0636	238
245.0312	999
259.2217	24
