Mass spectrum: HIPPURATE; LC-ESI-QTOF; MS2; CE: 10;  [M-H]-
Name: HIPPURATE
Class: NA
Formula: C9H9NO3
Exact mass: 179.05824
SMILES: OC(=O)CNC(=O)C1=CC=CC=C1
InChI: InChI=1S/C9H9NO3/c11-8(12)6-10-9(13)7-4-2-1-3-5-7/h1-5H,6H2,(H,10,13)(H,11,12)
Instrument: Agilent 6530Â Q-TOF LC/MS
Instrument type: LC-ESI-QTOF
Ms type: MS2
Ion mode: NEGATIVE
Ionization: ESI
Collision energy: 10
Column name: NA
Retention time: 0.200 min
Base peak: 178.04678
Precursor m/z: 178.04678
Precursor type: [M-H]-
Precursor intensity: 174
m/z	relative intensity
56.0133	129
77.0591	831
134.0841	851
178.0807	999
