Mass spectrum: 1-palmitoyl-2-docosahexaenoyl-sn-glycero-3-phosphocholine; ESI-TOF; MS2; CE: 0.6458333;  [M+H]+
Name: 1-palmitoyl-2-docosahexaenoyl-sn-glycero-3-phosphocholine
Class: NA
Formula: C46H80NO8P
Exact mass: 805.56216
SMILES: [H]C(=C([H])C([H])([H])C([H])=C([H])C([H])([H])C([H])=C([H])C([H])([H])C([H])([H])[H])C([H])([H])C([H])=C([H])C([H])([H])C([H])=C([H])C([H])([H])C([H])=C([H])C([H])([H])C([H])([H])C(=O)OC([H])(C([H])([H])OC(=O)C([H])([H])C([H])([H])C([H])([H])C([H])([H])C([H])([H])C([H])([H])C([H])([H])C([H])([H])C([H])([H])C([H])([H])C([H])([H])C([H])([H])C([H])([H])C([H])([H])C([H])([H])[H])C([H])([H])OP(=O)([O-])OC([H])([H])C([H])([H])[N+](C([H])([H])[H])(C([H])([H])[H])C([H])([H])[H]
InChI: InChI=1S/C46H80NO8P/c1-6-8-10-12-14-16-18-20-21-22-23-24-25-27-29-31-33-35-37-39-46(49)55-44(43-54-56(50,51)53-41-40-47(3,4)5)42-52-45(48)38-36-34-32-30-28-26-19-17-15-13-11-9-7-2/h8,10,14,16,20-21,23-24,27,29,33,35,44H,6-7,9,11-13,15,17-19,22,25-26,28,30-32,34,36-43H2,1-5H3
Instrument: waters xevo g2 TOF
Instrument type: ESI-TOF
Ms type: MS2
Ion mode: POSITIVE
Ionization: ESI
Collision energy: 0.6458333
Column name: Acquity CSHC18
Retention time: 10.882 min
Base peak: 806.57016
Precursor m/z: 806.57016
Precursor type: [M+H]+
m/z	relative intensity
86.0971	29
125.0009	8
163.0158	20
166.0635	3
184.074	999
185.0776	64
186.0789	9
294.6404	3
295.195	58
331.2142	1
367.1949	166
368.1992	39
369.1995	7
371.1873	3
383.1672	3
387.1719	3
419.2558	28
420.2617	6
422.7644	2
478.3299	252
479.3335	70
480.3372	5
487.7412	1
496.2892	2
515.4141	3
550.3309	107
551.3325	15
551.8468	2
552.3361	7
623.5032	25
624.5091	26
645.4866	27
646.4875	10
679.9661	14
680.4696	13
680.9698	4
681.4688	2
687.9532	1
697.4194	7
697.9213	6
698.4333	3
745.4418	2
769.4786	52
770.4855	25
771.4788	3
806.5699	821
807.5735	445
