Mass spectrum: Resveratrol; LC-ESI-ITFT; MS2; CE: 30;  [M+H]+
Name: Resveratrol
Class: Phenylpropanoids and polyketides; Stilbenes
Formula: C14H12O3
Exact mass: 228.07864
SMILES: OC1=CC=C(\C=C\C2=CC(O)=CC(O)=C2)C=C1
InChI: InChI=1S/C14H12O3/c15-12-5-3-10(4-6-12)1-2-11-7-13(16)9-14(17)8-11/h1-9,15-17H/b2-1+
Instrument: Thermo Scientific Q-Exactive Focus
Instrument type: LC-ESI-ITFT
Ms type: MS2
Ion mode: POSITIVE
Ionization: ESI
Collision energy: 30
Column name: Acquity CSHC18
Retention time: 0.914 min
Base peak: 229.08592
Precursor m/z: 229.08592
Precursor type: [M+H]+
m/z	relative intensity
79.0547	82
91.0546	446
95.0495	72
107.0495	999
119.0494	71
120.0572	143
135.0442	77
153.0699	77
155.0856	61
165.07	327
