Mass spectrum: Nicotianoside XII; LC-ESI-QTOF; MS2; CE: 22.5ev;  [M+NH4]+
Name: Nicotianoside XII
Class: Diterpene
Formula: C44H68O23
Exact mass: 964.4151
SMILES: O=C(O)CC(=O)OC[C@H]1O[C@@H](O[C@](C)(C=C)CC\C=C(/C)CC\C=C(/C)CC\C=C(\C)CO[C@@H]2O[C@H](COC(=O)CC(=O)O)[C@@H](O)[C@H](O)[C@H]2O[C@@H]2O[C@H](CO)[C@@H](O)[C@H](O)[C@H]2O)[C@H](O)[C@@H](O)[C@@H]1O
InChI: InChI=1S/C44H68O23/c1-6-44(5,67-42-39(59)36(56)33(53)26(64-42)20-60-30(50)16-28(46)47)15-9-14-23(3)11-7-10-22(2)12-8-13-24(4)19-62-43-40(66-41-38(58)35(55)32(52)25(18-45)63-41)37(57)34(54)27(65-43)21-61-31(51)17-29(48)49/h6,10,13-14,25-27,32-43,45,52-59H,1,7-9,11-12,15-21H2,2-5H3,(H,46,47)(H,48,49)/b22-10+,23-14+,24-13-/t25-,26-,27-,32-,33-,34-,35+,36+,37+,38-,39-,40-,41+,42+,43-,44-/m1/s1
Instrument: Impact II qTOF
Instrument type: LC-ESI-QTOF
Ms type: MS2
Ion mode: POSITIVE
Ionization: ESI
Collision energy: 22.5ev
Column name: Direct injection MS/MS
Retention time: 3.7 min
Base peak: 982.4509
Precursor m/z: 982.4509
Precursor type: [M+NH4]+
m/z	relative intensity
215.1795	18
231.0489	28
249.0595	72
249.06	55
271.2413	386
271.2423	306
272.2446	88
272.2457	58
375.094	14
393.103	23
411.113	149
461.0938	25
479.102	56
497.1117	86
497.113	92
498.1155	19
515.1259	18
519.2966	33
537.3084	41
641.1544	15
659.1687	33
659.1689	43
982.4497	999
982.4509	999
983.4553	486
984.4575	158
987.4089	105
