Mass spectrum: OXOGLUTARATE; LC-ESI-QTOF; MS2; CE: 40;  [M-H]-
Name: OXOGLUTARATE
Class: NA
Formula: C5H6O5
Exact mass: 146.02152
SMILES: OC(=O)CCC(=O)C(O)=O
InChI: InChI=1S/C5H6O5/c6-3(5(9)10)1-2-4(7)8/h1-2H2,(H,7,8)(H,9,10)
Instrument: Agilent 6530Â Q-TOF LC/MS
Instrument type: LC-ESI-QTOF
Ms type: MS2
Ion mode: NEGATIVE
Ionization: ESI
Collision energy: 40
Column name: NA
Retention time: 0.200 min
Base peak: 145.01486
Precursor m/z: 145.01486
Precursor type: [M-H]-
Precursor intensity: 117
m/z	relative intensity
41.0048	215
55.0343	378
61.9858	999
