Mass spectrum: N-Hexanoyl-L-homoserine lactone; LC-ESI-ITFT; MS2; CE: 10;  [M+H]+
Name: N-Hexanoyl-L-homoserine lactone
Class: NA
Formula: C10H17NO3
Exact mass: 199.12084
SMILES: CCCCCC(=O)N[C@H]1CCOC1=O
InChI: InChI=1S/C10H17NO3/c1-2-3-4-5-9(12)11-8-6-7-14-10(8)13/h8H,2-7H2,1H3,(H,11,12)/t8-/m0/s1
Instrument: Thermo Scientific Q-Exactive Focus
Instrument type: LC-ESI-ITFT
Ms type: MS2
Ion mode: POSITIVE
Ionization: ESI
Collision energy: 10
Column name: Acquity CSHC18
Retention time: 0.351 min
Base peak: 200.12811
Precursor m/z: 200.12811
Precursor type: [M+H]+
m/z	relative intensity
56.05	21
71.0859	720
74.024	5
74.0604	195
85.0287	4
99.0807	999
102.0551	885
172.1329	42
182.1174	96
200.1279	94
