Mass spectrum: Biotin; LC-ESI-QTOF; MS2; CE: 30;  [M-H]-
Name: Biotin
Class: NA
Formula: C10H16N2O3S
Exact mass: 244.0882
SMILES: C1C2C(C(S1)CCCCC(=O)O)NC(=O)N2
InChI: InChI=1S/C10H16N2O3S/c13-8(14)4-2-1-3-7-9-6(5-16-7)11-10(15)12-9/h6-7,9H,1-5H2,(H,13,14)(H2,11,12,15)
Instrument: impact II
Instrument type: LC-ESI-QTOF
Ms type: MS2
Ion mode: NEGATIVE
Ionization: ESI
Collision energy: 30
Column name: Acquity CSHC18
Retention time: 0.747 min
Base peak: 243.0811
Precursor m/z: 243.0811
Precursor type: [M-H]-
m/z	relative intensity
71.9914	172
72.9992	110
74.0064	215
85.0128	113
95.0251	999
97.0665	163
103.0592	597
111.0571	142
122.0973	587
130.0702	320
136.0764	131
139.0585	701
140.0627	167
153.1037	404
154.0877	277
156.0856	601
157.0891	121
165.1029	108
166.088	426
167.0906	148
179.0823	129
197.0934	152
200.0755	386
