Mass spectrum: Diethanolamine; ESI-TOF; MS2; CE: 6.0000000;  [M+H]+
Name: Diethanolamine
Class: NA
Formula: C4H11NO2
Exact mass: 105.07898
SMILES: OCCNCCO
InChI: InChI=1S/C4H11NO2/c6-3-1-5-2-4-7/h5-7H,1-4H2
Instrument: waters xevo g2 TOF
Instrument type: ESI-TOF
Ms type: MS2
Ion mode: POSITIVE
Ionization: ESI
Collision energy: 6.0000000
Column name: Acquity CSHC18
Retention time: 0.474 min
Base peak: 106.08698
Precursor m/z: 106.08698
Precursor type: [M+H]+
m/z	relative intensity
70.0658	4
88.0761	66
102.1284	17
106.0861	236
106.0865	999
107.0895	59
113.9637	91
128.0677	15
137.988	153
140.9851	12
141.9589	111
154.9907	132
157.9912	19
158.003	25
158.0032	28
163.9772	3
163.9775	7
163.9777	5
205.0048	2
236.9398	6
264.077	30
265.0838	8
267.0853	18
269.079	5
286.061	3
287.8862	2
422.0697	8
425.0742	2
