Mass spectrum: Pipecolic acid; LC-ESI-ITFT; MS2; CE: 40;  [M-H]-
Name: Pipecolic acid
Class: Organic acids and derivatives; Carboxylic acids and derivatives; Amino acids, peptides, and analogues
Formula: C6H11NO2
Exact mass: 129.07898
SMILES: OC(=O)C1CCCCN1
InChI: InChI=1S/C6H11NO2/c8-6(9)5-3-1-2-4-7-5/h5,7H,1-4H2,(H,8,9)
Instrument: Thermo Scientific Q-Exactive Focus
Instrument type: LC-ESI-ITFT
Ms type: MS2
Ion mode: NEGATIVE
Ionization: ESI
Collision energy: 40
Column name: Acquity CSHC18
Retention time: 1.479 min
Base peak: 128.07170
Precursor m/z: 128.07170
Precursor type: [M-H]-
m/z	relative intensity
57.6921	941
92.0047	973
92.5136	999
100.1831	915
122.3092	917
123.7744	959
130.9884	958
145.4775	932
147.6004	935
149.4716	933
