Mass spectrum: 5-Hydroxyferulic acid; LC-ESI-QTOF; MS2; CE: 15.00;  [M+H]+
Name: 5-Hydroxyferulic acid
Class: NA
Formula: C10H10O5
Exact mass: 210.0528
SMILES: COC1=CC(=CC(=C1O)O)C=CC(=O)O
InChI: InChI=1S/C10H10O5/c1-15-8-5-6(2-3-9(12)13)4-7(11)10(8)14/h2-5,11,14H,1H3,(H,12,13)
Instrument: Bruker MicrOTOF-Q
Instrument type: LC-ESI-QTOF
Ms type: MS2
Ion mode: POSITIVE
Ionization: ESI
Collision energy: 15.00
Column name: Acquity CSHC18
Retention time: NA
Base peak: 211.0601
Precursor m/z: 211.0601
Precursor type: [M+H]+
m/z	relative intensity
133.0267	30
134.031	38
147.0425	51
149.0579	72
150.0292	78
161.0227	82
162.0265	85
165.0547	105
169.0495	115
175.0381	211
178.0266	230
179.031	698
193.049	790
194.0522	999
