Mass spectrum: C16 Carnitine; ESI-TOF; MS2; CE: 6.0000000;  [M+H]+
Name: C16 Carnitine
Class: NA
Formula: C23H45NO4
Exact mass: 399.33486
SMILES: [H]C([H])([H])C([H])([H])C([H])([H])C([H])([H])C([H])([H])C([H])([H])C([H])([H])C([H])([H])C([H])([H])C([H])([H])C([H])([H])C([H])([H])C([H])([H])C([H])([H])C([H])([H])C(=O)OC([H])(C([H])([H])C(=O)[O-])C([H])([H])[N+](C([H])([H])[H])(C([H])([H])[H])C([H])([H])[H]
InChI: InChI=1S/C23H45NO4/c1-5-6-7-8-9-10-11-12-13-14-15-16-17-18-23(27)28-21(19-22(25)26)20-24(2,3)4/h21H,5-20H2,1-4H3
Instrument: waters xevo g2 TOF
Instrument type: ESI-TOF
Ms type: MS2
Ion mode: POSITIVE
Ionization: ESI
Collision energy: 6.0000000
Column name: Acquity CSHC18
Retention time: 4.949 min
Base peak: 400.34286
Precursor m/z: 400.34286
Precursor type: [M+H]+
m/z	relative intensity
85.0289	4
326.3795	2
341.2685	18
342.272	2
363.2488	1
400.422	804
401.3456	999
