Mass spectrum: Equol; LC-ESI-ITFT; MS2; CE: 30;  [M+H]+
Name: Equol
Class: Phenylpropanoids and polyketides; Isoflavonoids; Isoflavans
Formula: C15H14O3
Exact mass: 242.09429
SMILES: OC1=CC=C(C=C1)[C@H]1COC2=CC(O)=CC=C2C1
InChI: InChI=1S/C15H14O3/c16-13-4-1-10(2-5-13)12-7-11-3-6-14(17)8-15(11)18-9-12/h1-6,8,12,16-17H,7,9H2/t12-/m1/s1
Instrument: Thermo Scientific Q-Exactive Focus
Instrument type: LC-ESI-ITFT
Ms type: MS2
Ion mode: POSITIVE
Ionization: ESI
Collision energy: 30
Column name: Acquity CSHC18
Retention time: 0.917 min
Base peak: 243.10156
Precursor m/z: 243.10156
Precursor type: [M+H]+
m/z	relative intensity
55.0184	42
67.0547	56
79.0546	121
95.0494	125
103.0544	100
105.0701	999
107.0493	539
115.0543	44
123.0441	500
133.0647	782
