Mass spectrum: Apigenin-7-O-glucoside; LC-ESI-QTOF; MS2; CE: 24.83;  [M-H]-
Name: Apigenin-7-O-glucoside
Class: NA
Formula: C21H20O10
Exact mass: 432.1056
SMILES: C1=CC(=CC=C1C2=CC(=O)C3=C(O2)C(=C(C=C3O)O)C4C(C(C(C(O4)CO)O)O)O)O
InChI: InChI=1S/C21H20O10/c22-7-14-17(27)18(28)19(29)21(31-14)16-11(25)5-10(24)15-12(26)6-13(30-20(15)16)8-1-3-9(23)4-2-8/h1-6,14,17-19,21-25,27-29H,7H2
Instrument: Bruker MicrOTOF-Q
Instrument type: LC-ESI-QTOF
Ms type: MS2
Ion mode: NEGATIVE
Ionization: ESI
Collision energy: 24.83
Column name: Acquity CSHC18
Retention time: NA
Base peak: 431.0984
Precursor m/z: 431.0984
Precursor type: [M-H]-
m/z	relative intensity
64.2264	9
80.6757	11
91.007	13
96.0499	9
102.977	15
104.3977	17
117.0309	12
135.6068	18
139.52	12
161.5354	14
168.4063	11
171.904	16
184.7479	11
194.0645	18
201.0579	17
207.9072	11
210.375	15
235.9931	9
247.3926	11
267.7973	18
267.9481	30
268.0377	999
269.043	330
270.0542	17
270.4784	10
271.0344	14
311.0467	9
341.0923	11
352.7579	17
371.9689	16
431.0613	21
431.171	10
432.1216	19
434.0927	17
448.8954	10
655.3979	14
739.2034	14
747.4029	14
839.9868	12
910.5105	14
925.5501	11
