Mass spectrum: 3,4-Dihydroxyhydrocinnamic acid; ESI-TOF; MS2; CE: 6.0000000;  [M+H]+
Name: 3,4-Dihydroxyhydrocinnamic acid
Class: NA
Formula: C9H10O4
Exact mass: 182.05791
SMILES: OC(=O)CCC1=CC=C(O)C(O)=C1
InChI: InChI=1S/C9H10O4/c10-7-3-1-6(5-8(7)11)2-4-9(12)13/h1,3,5,10-11H,2,4H2,(H,12,13)
Instrument: waters xevo g2 TOF
Instrument type: ESI-TOF
Ms type: MS2
Ion mode: POSITIVE
Ionization: ESI
Collision energy: 6.0000000
Column name: Acquity CSHC18
Retention time: 2.249 min
Base peak: 183.06591
Precursor m/z: 183.06591
Precursor type: [M+H]+
m/z	relative intensity
72.9391	1
104.9636	3
121.0085	18
133.9669	3
138.9775	2
149.0034	15
158.1913	5
160.9786	2
201.1112	9
216.124	3
220.1163	6
222.1144	8
227.0366	6
227.9772	2
240.093	999
246.0632	3
259.0757	38
259.9975	11
271.1535	12
273.0411	12
297.1869	2
307.0016	11
315.0366	11
336.0407	16
377.0879	2
387.0048	4
400.983	7
459.2805	8
503.3075	6
517.1579	9
526.2944	2
534.1505	45
547.3339	5
613.3417	14
