Mass spectrum: Oleamide; LC-ESI-ITFT; MS2; CE: 100;  [M+H]+
Name: Oleamide
Class: Lipids and lipid-like molecules; Fatty Acyls; Fatty amides
Formula: C18H35NO
Exact mass: 281.27186
SMILES: CCCCCCCC\C=C/CCCCCCCC(N)=O
InChI: InChI=1S/C18H35NO/c1-2-3-4-5-6-7-8-9-10-11-12-13-14-15-16-17-18(19)20/h9-10H,2-8,11-17H2,1H3,(H2,19,20)/b10-9-
Instrument: Thermo Scientific Q-Exactive Focus
Instrument type: LC-ESI-ITFT
Ms type: MS2
Ion mode: POSITIVE
Ionization: ESI
Collision energy: 100
Column name: Acquity CSHC18
Retention time: 2.305 min
Base peak: 282.27914
Precursor m/z: 282.27914
Precursor type: [M+H]+
m/z	relative intensity
51.0235	169
53.0028	999
53.0391	209
55.0184	420
55.0547	658
65.039	155
92.5244	424
95.0494	198
121.3635	113
273.4881	117
