Mass spectrum: L-Tryptophan; ESI-TOF; MS2; CE: 0.6458333;  [M+H]+
Name: L-Tryptophan
Class: NA
Formula: C11H12N2O2
Exact mass: 204.08988
SMILES: NC(CC1=CNC2=CC=CC=C12)C(O)=O
InChI: InChI=1S/C11H12N2O2/c12-9(11(14)15)5-7-6-13-10-4-2-1-3-8(7)10/h1-4,6,9,13H,5,12H2,(H,14,15)
Instrument: waters xevo g2 TOF
Instrument type: ESI-TOF
Ms type: MS2
Ion mode: POSITIVE
Ionization: ESI
Collision energy: 0.6458333
Column name: Acquity CSHC18
Retention time: 1.748 min
Base peak: 205.09788
Precursor m/z: 205.09788
Precursor type: [M+H]+
m/z	relative intensity
77.0391	3
90.0471	3
91.0549	134
92.0582	10
102.0912	1
103.0554	4
115.0548	185
116.0651	44
117.059	81
118.0656	999
119.0688	96
120.0721	2
127.0545	32
128.0532	14
130.0654	48
132.0811	67
133.0844	7
141.0578	2
142.0655	125
143.0733	272
144.081	267
145.0841	29
146.0605	747
147.0639	81
148.066	5
157.0762	3
159.0922	22
160.0859	8
170.0603	93
171.0628	12
187.0108	3
188.0443	43
189.0739	11
205.0976	7
