Mass spectrum: Delphinidin-3-coumaroyl rutinoside-5-glucoside; LC-ESI-ITFT; MS2; CE: 35eV;  [M]+
Name: Delphinidin-3-coumaroyl rutinoside-5-glucoside
Class: Anthocyanidin
Formula: [C42H47O23]+
Exact mass: 919.2503
SMILES: CC1C(C(C(C(O1)OCC2C(C(C(C(O2)OC3=C([O+]=C4C=C(C=C(C4=C3)OC5C(C(C(C(O5)CO)O)O)O)O)C6=CC(=C(C(=C6)O)O)O)O)O)O)O)O)OC(=O)C=CC7=CC=C(C=C7)O
InChI: InChI=1S/C42H46O23/c1-15-38(65-28(48)7-4-16-2-5-18(44)6-3-16)34(54)37(57)40(59-15)58-14-27-31(51)33(53)36(56)42(64-27)62-25-12-20-23(60-39(25)17-8-21(46)29(49)22(47)9-17)10-19(45)11-24(20)61-41-35(55)32(52)30(50)26(13-43)63-41/h2-12,15,26-27,30-38,40-43,50-57H,13-14H2,1H3,(H4-,44,45,46,47,48,49)/p+1
Instrument: LTQ Orbitrap XL, Thermo Scientfic; Dionex Ultimate 300
Instrument type: LC-ESI-ITFT
Ms type: MS2
Ion mode: POSITIVE
Ionization: ESI
Collision energy: 35eV
Column name: Lichrospher C18 Column 250*4 5um, Interchim
Retention time: 53.48 min
Base peak: 919.2527
Precursor m/z: 919.2527
Precursor type: [M]+
m/z	relative intensity
291.0514	123
302.979	999
345.0247	164
449.1165	64
454.9822	111
465.0196	235
610.9915	217
652.8658	70
675.1566	88
755.0242	64
757.2377	235
772.7916	276
887.3184	88
