Mass spectrum: 7,8-Dimethoxychromen-2-one; LC-ESI-ITFT; MS2; CE: 45eV;  [M+H]+
Name: 7,8-Dimethoxychromen-2-one
Class: coumarin
Formula: C11H10O4
Exact mass: 206.0579
SMILES: COC1=C(C2=C(C=C1)C=CC(=O)O2)OC
InChI: InChI=1S/C11H10O4/c1-13-8-5-3-7-4-6-9(12)15-10(7)11(8)14-2/h3-6H,1-2H3
Instrument: LTQ Orbitrap XL, Thermo Scientfic; Dionex Ultimate 300
Instrument type: LC-ESI-ITFT
Ms type: MS2
Ion mode: POSITIVE
Ionization: ESI
Collision energy: 45eV
Column name: Uptispher ODB C23
Retention time: 23.3 min
Base peak: 207.0645
Precursor m/z: 207.0645
Precursor type: [M+H]+
m/z	relative intensity
78.7328	1
135.871	1
146.9379	25
191.8182	999
