Mass spectrum: Androstenedione; LC-ESI-QFT; MS2; CE: 30 eV;  [M+H]+
Name: Androstenedione
Class: NA
Formula: C19H26O2
Exact mass: 286.19328
SMILES: [H][C@@]12CCC(=O)[C@@]1(C)CC[C@@]1([H])[C@@]2([H])CCC2=CC(=O)CC[C@]12C
InChI: InChI=1S/C19H26O2/c1-18-9-7-13(20)11-12(18)3-4-14-15-5-6-17(21)19(15,2)10-8-16(14)18/h11,14-16H,3-10H2,1-2H3/t14-,15-,16-,18-,19-/m0/s1
Instrument: Q-Exactive Orbitrap, Thermo Scientfic; Ultimate 3000 HPLC, Thermo Scientfic
Instrument type: LC-ESI-QFT
Ms type: MS2
Ion mode: POSITIVE
Ionization: ESI
Collision energy: 30 eV
Column name: Acquity CSHC18
Retention time: 10.158 min
Base peak: 287.2006
Precursor m/z: 287.2006
Precursor type: [M+H]+
Precursor intensity: 175
m/z	relative intensity
109.0833	11
110.0702	19
147.0988	23
173.1141	24
227.1609	50
241.1764	999
