Mass spectrum: Salicylic acid; LC-ESI-ITFT; MS2; CE: 20;  [M-H]-
Name: Salicylic acid
Class: Benzenoids; Benzene and substituted derivatives; Benzoic acids and derivatives
Formula: C7H6O3
Exact mass: 138.03169
SMILES: OC(=O)C1=CC=CC=C1O
InChI: InChI=1S/C7H6O3/c8-6-4-2-1-3-5(6)7(9)10/h1-4,8H,(H,9,10)
Instrument: Thermo Scientific Q-Exactive Focus
Instrument type: LC-ESI-ITFT
Ms type: MS2
Ion mode: NEGATIVE
Ionization: ESI
Collision energy: 20
Column name: Acquity CSHC18
Retention time: NA
Base peak: 137.02441
Precursor m/z: 137.02441
Precursor type: [M-H]-
m/z	relative intensity
56.7958	1
65.0385	35
67.6045	1
72.2046	1
75.6585	1
83.1031	1
93.0334	999
120.5193	1
136.3525	1
137.0233	8
