Mass spectrum: Luteolin; LC-ESI-QFT; MS2; CE: 15,30,45 (NCE);  [M-H]-
Name: Luteolin
Class: NA
Formula: C15H10O6
Exact mass: 286.0477
SMILES: OC1=CC(O)=C2C(=O)C=C(OC2=C1)C1=CC(O)=C(O)C=C1
InChI: InChI=1S/C15H10O6/c16-8-4-11(19)15-12(20)6-13(21-14(15)5-8)7-1-2-9(17)10(18)3-7/h1-6,16-19H
Instrument: QE Focus, Thermo Scientfic; UPLC I-Class, Waters
Instrument type: LC-ESI-QFT
Ms type: MS2
Ion mode: NEGATIVE
Ionization: ESI
Collision energy: 15,30,45 (NCE)
Column name: Acquity CSHC18
Retention time: 2.099 min
Base peak: 285.0406
Precursor m/z: 285.0406
Precursor type: [M-H]-
Precursor intensity: 236755000
m/z	relative intensity
69.2342	24
107.0124	111
133.0283	999
