Mass spectrum: 3-METHOXYTYROSINE; LC-ESI-QTOF; MS2; CE: 20;  [M+H]+
Name: 3-METHOXYTYROSINE
Class: NA
Formula: C10H13NO4
Exact mass: 211.08446
SMILES: COC1=CC(CC(N)C(O)=O)=CC=C1O
InChI: InChI=1S/C10H13NO4/c1-15-9-5-6(2-3-8(9)12)4-7(11)10(13)14/h2-3,5,7,12H,4,11H2,1H3,(H,13,14)
Instrument: Agilent 6530Â Q-TOF LC/MS
Instrument type: LC-ESI-QTOF
Ms type: MS2
Ion mode: POSITIVE
Ionization: ESI
Collision energy: 20
Column name: NA
Retention time: 0.200 min
Base peak: 212.09517
Precursor m/z: 212.09517
Precursor type: [M+H]+
Precursor intensity: 131.5
m/z	relative intensity
43.0424	26
45.041	27
53.0307	27
55.0334	29
63.0232	29
65.0594	29
66.0408	29
77.0538	30
78.0557	30
79.0716	30
89.0427	34
91.085	35
93.0695	36
95.0602	39
103.0556	40
106.0913	41
107.0616	42
108.0542	42
109.0245	44
110.0471	45
116.0549	52
117.0448	54
118.0639	55
119.0624	59
121.1003	62
122.0418	75
123.0538	83
124.0571	84
125.0902	91
133.0458	95
134.0857	102
135.0763	114
136.0472	118
137.0685	123
138.0533	159
139.0686	204
145.028	210
148.0737	354
149.1007	412
149.3807	417
149.6187	510
151.0807	605
153.0915	606
166.129	655
166.6132	857
177.0699	941
195.0808	999
