Mass spectrum: Luteolin; LC-ESI-QTOF; MS2; CE: 7-62eV;  [M-H]-
Name: Luteolin
Class: Phenolics
Formula: C15H10O6
Exact mass: 286.0477
SMILES: C1=CC(=C(C=C1C2=CC(=O)C3=C(C=C(C=C3O2)O)O)O)O
InChI: InChI=1S/C15H10O6/c16-8-4-11(19)15-12(20)6-13(21-14(15)5-8)7-1-2-9(17)10(18)3-7/h1-6,16-19H
Instrument: Bruker MicrOTOF-Q
Instrument type: LC-ESI-QTOF
Ms type: MS2
Ion mode: NEGATIVE
Ionization: ESI
Collision energy: 7-62eV
Column name: Acquity CSHC18
Retention time: 34.552 min
Base peak: 285.0391
Precursor m/z: 285.0391
Precursor type: [M-H]-
Precursor intensity: 18516.19
m/z	relative intensity
107.0141	36
121.0275	41
132.0229	41
133.0342	44
134.0347	47
149.0228	54
151.0038	58
175.0395	62
199.0376	70
201.0156	126
213.061	153
217.0465	479
285.0712	999
