Mass spectrum: 2-HYDROXYPHENYLACETATE; LC-ESI-QTOF; MS2; CE: 40;  [M-H]-
Name: 2-HYDROXYPHENYLACETATE
Class: NA
Formula: C8H8O3
Exact mass: 152.04734
SMILES: O[C@@H](C(O)=O)C1=CC=CC=C1
InChI: InChI=1S/C8H8O3/c9-7(8(10)11)6-4-2-1-3-5-6/h1-5,7,9H,(H,10,11)/t7-/m1/s1
Instrument: Agilent 6530Â Q-TOF LC/MS
Instrument type: LC-ESI-QTOF
Ms type: MS2
Ion mode: NEGATIVE
Ionization: ESI
Collision energy: 40
Column name: NA
Retention time: 0.200 min
Base peak: 151.03743
Precursor m/z: 151.03743
Precursor type: [M-H]-
Precursor intensity: 119
m/z	relative intensity
42.4655	70
59.0205	319
63.8683	434
76.7659	443
83.0049	464
83.6986	501
85.2278	543
128.306	655
147.8207	999
