Mass spectrum: CORTEXOLONE; LC-ESI-QFT; MS2; CE: 30eV;  [M+H]+
Name: CORTEXOLONE
Class: NA
Formula: C21H30O4
Exact mass: 346.21441
SMILES: [H]C12CC[C@](O)(C(=O)CO)[C@@]1(C)CCC1([H])[C@@]2([H])CCC2=CC(=O)CC[C@]12C
InChI: InChI=1S/C21H30O4/c1-19-8-5-14(23)11-13(19)3-4-15-16(19)6-9-20(2)17(15)7-10-21(20,25)18(24)12-22/h11,15-17,22,25H,3-10,12H2,1-2H3/t15-,16?,17?,19+,20+,21+/m1/s1
Instrument: Q-Exactive Orbitrap, Thermo Scientfic; Ultimate 3000 HPLC, Thermo Scientfic
Instrument type: LC-ESI-QFT
Ms type: MS2
Ion mode: POSITIVE
Ionization: ESI
Collision energy: 30eV
Column name: Acquity CSHC18
Retention time: 9.325 min
Base peak: 347.2217
Precursor m/z: 347.2217
Precursor type: [M+H]+
Precursor intensity: 142
m/z	relative intensity
253.1769	999
