Mass spectrum: Acetyl CoA; LC-ESI-QTOF; MS2; CE: 15 / 50;  [M-H]-
Name: Acetyl CoA
Class: O-glucuronides
Formula: C23H38N7O17P3S
Exact mass: 809.1258
SMILES: CC(=O)SCCNC(=O)CCNC(=O)[C@H](O)C(C)(C)COP(O)(=O)OP(O)(=O)OC[C@H]1O[C@H]([C@H](O)[C@@H]1OP(O)(O)=O)N1C=NC2=C1N=CN=C2N
InChI: InChI=1S/C23H38N7O17P3S/c1-12(31)51-7-6-25-14(32)4-5-26-21(35)18(34)23(2,3)9-44-50(41,42)47-49(39,40)43-8-13-17(46-48(36,37)38)16(33)22(45-13)30-11-29-15-19(24)27-10-28-20(15)30/h10-11,13,16-18,22,33-34H,4-9H2,1-3H3,(H,25,32)(H,26,35)(H,39,40)(H,41,42)(H2,24,27,28)(H2,36,37,38)/t13-,16-,17-,18+,22-/m1/s1
Instrument: impact II
Instrument type: LC-ESI-QTOF
Ms type: MS2
Ion mode: NEGATIVE
Ionization: ESI
Collision energy: 15 / 50
Column name: Acquity CSHC18
Retention time: 0.698 min
Base peak: 808.1188
Precursor m/z: 808.1188
Precursor type: [M-H]-
m/z	relative intensity
78.9589	292
134.0475	143
158.9254	340
272.9576	212
328.0453	124
381.0895	176
408.0117	496
426.0222	170
461.0552	231
728.1518	109
808.1184	999
809.1214	282
