Mass spectrum: Pipecolic acid; LC-ESI-ITFT; MS2; CE: 10;  [M-H]-
Name: Pipecolic acid
Class: Organic acids and derivatives; Carboxylic acids and derivatives; Amino acids, peptides, and analogues
Formula: C6H11NO2
Exact mass: 129.07898
SMILES: OC(=O)C1CCCCN1
InChI: InChI=1S/C6H11NO2/c8-6(9)5-3-1-2-4-7-5/h5,7H,1-4H2,(H,8,9)
Instrument: Thermo Scientific Q-Exactive Focus
Instrument type: LC-ESI-ITFT
Ms type: MS2
Ion mode: NEGATIVE
Ionization: ESI
Collision energy: 10
Column name: Acquity CSHC18
Retention time: 0.364 min
Base peak: 128.07170
Precursor m/z: 128.07170
Precursor type: [M-H]-
m/z	relative intensity
82.0286	13
84.0442	8
84.0523	22
85.0282	8
92.5153	7
128.0091	18
128.0306	4
128.0342	884
128.0706	999
128.8769	26
