Mass spectrum: DIAMINOPIMELATE; LC-ESI-QTOF; MS2; CE: 20;  [M-H]-
Name: DIAMINOPIMELATE
Class: NA
Formula: C7H14N2O4
Exact mass: 190.09536
SMILES: N[C@@H](CCC[C@H](N)C(O)=O)C(O)=O
InChI: InChI=1S/C7H14N2O4/c8-4(6(10)11)2-1-3-5(9)7(12)13/h4-5H,1-3,8-9H2,(H,10,11)(H,12,13)/t4-,5-/m0/s1
Instrument: Agilent 6530Â Q-TOF LC/MS
Instrument type: LC-ESI-QTOF
Ms type: MS2
Ion mode: NEGATIVE
Ionization: ESI
Collision energy: 20
Column name: NA
Retention time: 0.200 min
Base peak: 189.08800
Precursor m/z: 189.08800
Precursor type: [M-H]-
Precursor intensity: 180
m/z	relative intensity
41.0451	111
42.0189	115
43.0248	127
45.0031	129
67.0597	137
70.0317	166
71.0287	168
72.0278	169
74.037	172
108.0527	186
110.0679	203
111.0629	226
125.0837	228
126.0669	340
127.0993	367
128.0969	469
145.1065	856
171.0935	868
189.1042	999
