Mass spectrum: Vincristine; ESI-QTOF; MS2; CE: 30 eV;  [M+H]+
Name: Vincristine
Class: NA
Formula: C46H56N4O10
Exact mass: 824.3996
SMILES: CCC1(CC2(CC(C=3C=C4C(=CC3OC)N(C=O)C5(C64CCN7CC=CC(CC)(C67[H])C(C5(C(=O)OC)O)(OC(C)=O)[H])[H])(C8=C(CCN(C2)C1)C9=CC=CC=C9N8)C(=O)OC)[H])O
InChI: InChI=1S/C46H56N4O10/c1-7-42(55)22-28-23-45(40(53)58-5,36-30(14-18-48(24-28)25-42)29-12-9-10-13-33(29)47-36)32-20-31-34(21-35(32)57-4)50(26-51)38-44(31)16-19-49-17-11-15-43(8-2,37(44)49)39(60-27(3)52)46(38,56)41(54)59-6/h9-13,15,20-21,26,28,37-39,47,55-56H,7-8,14,16-19,22-25H2,1-6H3
Instrument: Synapt (HDMS 1st gen)
Instrument type: ESI-QTOF
Ms type: MS2
Ion mode: POSITIVE
Ionization: ESI
Collision energy: 30 eV
Column name: Acquity CSHC18
Retention time: 13.814 min
Base peak: 825.4130
Precursor m/z: 825.4130
Precursor type: [M+H]+
Precursor intensity: 16413.16
m/z	relative intensity
765.3831	23
766.3883	23
807.4004	46
825.4127	999
