Mass spectrum: 1-palmitoyl-2-hydroxy-sn-glycero-3-phosphocholine; ESI-TOF; MS2; CE: 6.0000000;  [M+H]+
Name: 1-palmitoyl-2-hydroxy-sn-glycero-3-phosphocholine
Class: NA
Formula: C24H50NO7P
Exact mass: 495.33249
SMILES: [H]OC([H])(C([H])([H])OC(=O)C([H])([H])C([H])([H])C([H])([H])C([H])([H])C([H])([H])C([H])([H])C([H])([H])C([H])([H])C([H])([H])C([H])([H])C([H])([H])C([H])([H])C([H])([H])C([H])([H])C([H])([H])[H])C([H])([H])OP(=O)([O-])OC([H])([H])C([H])([H])[N+](C([H])([H])[H])(C([H])([H])[H])C([H])([H])[H]
InChI: InChI=1S/C24H50NO7P/c1-5-6-7-8-9-10-11-12-13-14-15-16-17-18-24(27)30-21-23(26)22-32-33(28,29)31-20-19-25(2,3)4/h23,26H,5-22H2,1-4H3
Instrument: waters xevo g2 TOF
Instrument type: ESI-TOF
Ms type: MS2
Ion mode: POSITIVE
Ionization: ESI
Collision energy: 6.0000000
Column name: Acquity CSHC18
Retention time: 6.260 min
Base peak: 496.34049
Precursor m/z: 496.34049
Precursor type: [M+H]+
m/z	relative intensity
104.1075	15
148.5326	24
157.5378	8
184.0739	45
185.0774	3
239.6366	3
240.1	29
241.1037	4
258.6426	16
259.1444	4
266.6289	2
267.6483	106
268.1496	43
268.6506	10
269.6442	3
275.6344	4
295.1954	28
296.1987	8
309.6242	3
312.0168	3
313.2199	1
314.0308	6
316.0276	4
333.1184	3
337.2363	9
366.6626	4
431.1871	3
478.33	31
479.334	15
480.3354	1
496.4196	999
497.3438	551
