Mass spectrum: Ciprostene (calcium salt); ESI-TOF; MS2; CE: 0.6458333;  [M+H]+
Name: Ciprostene (calcium salt)
Class: NA
Formula: C22H36O4
Exact mass: 364.26136
SMILES: CCCCC[C@H](O)/C=C/[C@H]1[C@H](O)C[C@@]2(C)[C@@H]1C/C(C2)=C/CCCC(O)=O
InChI: InChI=1S/C22H36O4/c1-3-4-5-9-17(23)11-12-18-19-13-16(8-6-7-10-21(25)26)14-22(19,2)15-20(18)24/h8,11-12,17-20,23-24H,3-7,9-10,13-15H2,1-2H3,(H,25,26)/b12-11+,16-8-/t17-,18+,19+,20+,22-/m0/s1
Instrument: waters xevo g2 TOF
Instrument type: ESI-TOF
Ms type: MS2
Ion mode: POSITIVE
Ionization: ESI
Collision energy: 0.6458333
Column name: Acquity CSHC18
Retention time: 4.941 min
Base peak: 365.26936
Precursor m/z: 365.26936
Precursor type: [M+H]+
m/z	relative intensity
67.0541	43
79.0548	73
81.0702	216
83.0863	33
91.0538	119
93.0712	357
94.0728	11
95.0866	208
97.0662	22
101.0611	19
105.071	378
107.0869	226
108.0886	10
109.103	82
117.0701	141
118.0762	13
119.0874	320
121.1026	62
125.0968	40
131.0848	565
133.1014	220
135.1186	79
137.13	15
141.0687	21
142.0762	19
143.0868	274
145.1025	485
146.1056	33
147.1173	125
149.1146	18
150.1334	10
151.1488	40
155.0864	63
157.1027	214
158.1048	28
159.1187	206
160.1198	13
161.0976	159
163.1487	40
165.128	30
169.1007	121
171.1174	195
173.1346	75
175.1133	142
179.1074	145
181.1206	38
183.1207	132
184.1008	17
185.1332	238
187.1472	116
188.1496	12
189.1005	21
193.1232	42
195.1166	86
197.1325	82
199.1118	96
201.1648	136
202.1653	18
203.1797	65
209.1347	50
211.148	34
213.1273	155
214.1342	15
215.1452	18
217.1559	20
219.1395	51
223.1471	44
225.1627	26
227.1794	105
228.1835	19
229.1941	32
231.1053	33
233.0372	10
239.1898	8
241.1952	35
245.1528	67
255.1705	20
259.1739	29
267.2077	24
269.2242	42
274.0861	44
277.0786	14
285.223	7
293.2271	92
311.2358	153
312.2391	32
327.231	75
329.2478	999
330.2512	230
331.2574	34
345.2422	33
347.258	53
367.1926	29
