Mass spectrum: Itaconic acid; LC-ESI-QTOF; MS2; CE: 10;  [M-H]-
Name: Itaconic acid
Class: Branched fatty acids
Formula: C5H6O4
Exact mass: 130.0266
SMILES: OC(=O)CC(=C)C(O)=O
InChI: InChI=1S/C5H6O4/c1-3(5(8)9)2-4(6)7/h1-2H2,(H,6,7)(H,8,9)
Instrument: impact II
Instrument type: LC-ESI-QTOF
Ms type: MS2
Ion mode: NEGATIVE
Ionization: ESI
Collision energy: 10
Column name: Acquity CSHC18
Retention time: 1.918 min
Base peak: 129.0192
Precursor m/z: 129.0192
Precursor type: [M-H]-
m/z	relative intensity
85.0298	999
86.0333	50
129.0194	100
130.0226	10
