Mass spectrum: DGDP; LC-ESI-QTOF; MS2; CE: 40;  [M-H]-
Name: DGDP
Class: NA
Formula: C10H15N5O10P2
Exact mass: 427.02941
SMILES: NC1=NC2=C(N=CN2[C@H]2C[C@H](O)[C@@H](COP(O)(=O)OP(O)(O)=O)O2)C(=O)N1
InChI: InChI=1S/C10H15N5O10P2/c11-10-13-8-7(9(17)14-10)12-3-15(8)6-1-4(16)5(24-6)2-23-27(21,22)25-26(18,19)20/h3-6,16H,1-2H2,(H,21,22)(H2,18,19,20)(H3,11,13,14,17)/t4-,5+,6+/m0/s1
Instrument: Agilent 6530Â Q-TOF LC/MS
Instrument type: LC-ESI-QTOF
Ms type: MS2
Ion mode: NEGATIVE
Ionization: ESI
Collision energy: 40
Column name: NA
Retention time: 0.200 min
Base peak: 426.02479
Precursor m/z: 426.02479
Precursor type: [M-H]-
Precursor intensity: 141
m/z	relative intensity
78.9731	342
158.9383	999
