Mass spectrum: Coniferyl alcohol; LC-ESI-QTOF; MS2; CE: 18.24;  [2M-H2O+H]+
Name: Coniferyl alcohol
Class: NA
Formula: C10H12O3
Exact mass: 180.0786
SMILES: COC1=C(C=CC(=C1)C=CCO)O
InChI: InChI=1S/C10H12O3/c1-13-10-7-8(3-2-6-11)4-5-9(10)12/h2-5,7,11-12H,6H2,1H3
Instrument: Bruker MicrOTOF-Q
Instrument type: LC-ESI-QTOF
Ms type: MS2
Ion mode: POSITIVE
Ionization: ESI
Collision energy: 18.24
Column name: Acquity CSHC18
Retention time: NA
Base peak: 343.1540
Precursor m/z: 343.1540
Precursor type: [2M-H2O+H]+
m/z	relative intensity
131.0478	38
137.0589	42
151.0752	43
153.0536	43
159.079	44
163.0752	44
169.0646	47
175.0752	48
176.08	49
177.0898	53
181.0654	55
186.0667	63
187.0759	64
189.0913	66
191.1066	66
201.0914	70
202.095	73
209.0601	79
213.092	91
219.1007	92
233.0935	94
237.091	108
241.0853	119
261.0911	144
265.0972	150
266.1	154
270.0878	170
271.0933	172
273.111	182
283.0969	198
284.1015	265
293.1177	277
294.1218	281
297.1126	407
298.1152	454
310.1202	895
325.1429	930
326.1458	999
