Mass spectrum: Xanthotoxol; LC-ESI-ITFT; MS2; CE: 45eV;  [M+H]+
Name: Xanthotoxol
Class: coumarin
Formula: C11H6O4
Exact mass: 202.0266
SMILES: C1=CC(=O)OC2=C(C3=C(C=CO3)C=C21)O
InChI: InChI=1S/C11H6O4/c12-8-2-1-6-5-7-3-4-14-10(7)9(13)11(6)15-8/h1-5,13H
Instrument: LTQ Orbitrap XL, Thermo Scientfic; Dionex Ultimate 300
Instrument type: LC-ESI-ITFT
Ms type: MS2
Ion mode: POSITIVE
Ionization: ESI
Collision energy: 45eV
Column name: Alltima C18
Retention time: 13.87 min
Base peak: 203.0338
Precursor m/z: 203.0338
Precursor type: [M+H]+
m/z	relative intensity
103.8164	594
145.1004	864
173.0208	999
