Mass spectrum: N-ACETYLGLYCINE; LC-ESI-QFT; MS2; CE: 30eV;  [M+H]+
Name: N-ACETYLGLYCINE
Class: NA
Formula: C4H7NO3
Exact mass: 117.04259
SMILES: CC(=O)NCC(O)=O
InChI: InChI=1S/C4H7NO3/c1-3(6)5-2-4(7)8/h2H2,1H3,(H,5,6)(H,7,8)
Instrument: Q-Exactive Orbitrap, Thermo Scientfic; Ultimate 3000 HPLC, Thermo Scientfic
Instrument type: LC-ESI-QFT
Ms type: MS2
Ion mode: POSITIVE
Ionization: ESI
Collision energy: 30eV
Column name: Acquity CSHC18
Retention time: 0.705 min
Base peak: 118.0499
Precursor m/z: 118.0499
Precursor type: [M+H]+
Precursor intensity: 114
m/z	relative intensity
58.066	57
59.0738	74
72.0452	4
72.0815	4
76.0401	287
77.0434	3
91.0549	3
100.0399	1
100.1126	5
116.9724	1
118.0505	3
118.0868	999
118.1231	9
119.086	1
119.09	20
