Mass spectrum: 1,2-distearoyl-sn-glycero-3-phosphocholine; ESI-TOF; MS2; CE: 0.6458333;  [M+H]+
Name: 1,2-distearoyl-sn-glycero-3-phosphocholine
Class: NA
Formula: C44H88NO8P
Exact mass: 789.62476
SMILES: [H]C([H])([H])C([H])([H])C([H])([H])C([H])([H])C([H])([H])C([H])([H])C([H])([H])C([H])([H])C([H])([H])C([H])([H])C([H])([H])C([H])([H])C([H])([H])C([H])([H])C([H])([H])C([H])([H])C([H])([H])C(=O)OC([H])([H])C([H])(OC(=O)C([H])([H])C([H])([H])C([H])([H])C([H])([H])C([H])([H])C([H])([H])C([H])([H])C([H])([H])C([H])([H])C([H])([H])C([H])([H])C([H])([H])C([H])([H])C([H])([H])C([H])([H])C([H])([H])C([H])([H])[H])C([H])([H])OP(=O)([O-])OC([H])([H])C([H])([H])[N+](C([H])([H])[H])(C([H])([H])[H])C([H])([H])[H]
InChI: InChI=1S/C44H88NO8P/c1-6-8-10-12-14-16-18-20-22-24-26-28-30-32-34-36-43(46)50-40-42(41-52-54(48,49)51-39-38-45(3,4)5)53-44(47)37-35-33-31-29-27-25-23-21-19-17-15-13-11-9-7-2/h42H,6-41H2,1-5H3
Instrument: waters xevo g2 TOF
Instrument type: ESI-TOF
Ms type: MS2
Ion mode: POSITIVE
Ionization: ESI
Collision energy: 0.6458333
Column name: Acquity CSHC18
Retention time: 11.884 min
Base peak: 790.63276
Precursor m/z: 790.63276
Precursor type: [M+H]+
m/z	relative intensity
84.9603	25
86.0973	6
104.1082	6
146.9819	7
184.074	645
185.0773	143
186.0772	21
323.2265	283
324.2292	25
339.1975	19
341.0212	9
429.0893	11
447.2884	36
457.1846	8
506.3604	227
507.3656	218
522.2604	5
524.3687	7
579.5389	8
607.5684	80
608.5704	21
629.547	17
630.5536	7
647.4311	10
667.4714	16
667.9741	15
684.204	3
689.1657	10
690.1629	6
753.5414	41
754.5438	13
762.5952	18
763.3765	25
765.3776	10
776.6168	5
784.5774	15
790.6324	999
791.6354	518
