Mass spectrum: p-Aminobenzoic acid; LC-ESI-ITFT; MS2; CE: 20;  [M+H]+
Name: p-Aminobenzoic acid
Class: Benzenoids; Benzene and substituted derivatives; Benzoic acids and derivatives
Formula: C7H7NO2
Exact mass: 137.04768
SMILES: NC1=CC=C(C=C1)C(O)=O
InChI: InChI=1S/C7H7NO2/c8-6-3-1-5(2-4-6)7(9)10/h1-4H,8H2,(H,9,10)
Instrument: Thermo Scientific Q-Exactive Focus
Instrument type: LC-ESI-ITFT
Ms type: MS2
Ion mode: POSITIVE
Ionization: ESI
Collision energy: 20
Column name: Acquity CSHC18
Retention time: 0.630 min
Base peak: 138.05496
Precursor m/z: 138.05496
Precursor type: [M+H]+
m/z	relative intensity
53.0391	383
65.039	999
92.0497	92
93.0575	519
94.0653	755
95.0493	873
105.0448	228
120.0444	174
121.0285	96
138.0548	579
