Mass spectrum: 2-arachidonoyl glycerol; ESI-TOF; MS2; CE: 0.6458333;  [M+H]+
Name: 2-arachidonoyl glycerol
Class: NA
Formula: C23H38O4
Exact mass: 378.27701
SMILES: [H]OC([H])([H])C([H])(OC(=O)C([H])([H])C([H])([H])C([H])([H])C([H])=C([H])C([H])([H])C([H])=C([H])C([H])([H])C([H])=C([H])C([H])([H])C([H])=C([H])C([H])([H])C([H])([H])C([H])([H])C([H])([H])C([H])([H])[H])C([H])([H])O[H]
InChI: InChI=1S/C23H38O4/c1-2-3-4-5-6-7-8-9-10-11-12-13-14-15-16-17-18-19-23(26)27-22(20-24)21-25/h6-7,9-10,12-13,15-16,22,24-25H,2-5,8,11,14,17-21H2,1H3
Instrument: waters xevo g2 TOF
Instrument type: ESI-TOF
Ms type: MS2
Ion mode: POSITIVE
Ionization: ESI
Collision energy: 0.6458333
Column name: Acquity CSHC18
Retention time: 7.364 min
Base peak: 379.28501
Precursor m/z: 379.28501
Precursor type: [M+H]+
m/z	relative intensity
67.0552	42
69.0708	46
79.055	131
81.071	114
91.0553	171
92.0587	20
93.0708	143
95.0863	50
97.0663	33
105.0708	190
107.0529	152
109.1012	18
117.071	94
119.086	200
120.0891	34
121.1015	132
122.1053	17
129.0658	76
130.0745	18
131.0442	219
133.1017	174
134.1049	29
135.1177	62
137.1143	16
143.086	85
144.0899	20
145.1019	95
147.1173	98
148.1205	18
149.1053	25
157.1012	107
158.1051	18
159.1168	73
161.1328	116
163.0967	121
163.5977	52
165.0214	20
171.1174	136
172.1027	21
173.1331	61
175.1486	78
177.1646	47
185.1328	100
186.136	25
187.149	60
189.1641	66
191.1801	35
201.1645	55
203.1799	154
204.1651	38
209.1204	645
209.622	169
210.1241	54
211.1178	22
213.1643	58
227.1809	34
241.1953	18
243.1141	35
246.2296	16
255.1437	108
255.6464	29
259.2432	39
267.1634	181
268.1658	14
269.2274	220
270.2298	34
287.2376	223
305.2481	51
327.2165	51
328.2204	17
343.1952	999
344.199	225
345.1997	43
358.1632	60
359.1676	220
360.1705	75
361.2749	103
362.2769	20
379.2847	69
380.2877	24
