Mass spectrum: L-Lactic acid; LC-ESI-ITFT; MS2; CE: 40;  [M-H]-
Name: L-Lactic acid
Class: Organic acids and derivatives; Hydroxy acids and derivatives; Alpha hydroxy acids and derivatives
Formula: C3H6O3
Exact mass: 90.03169
SMILES: C[C@H](O)C(O)=O
InChI: InChI=1S/C3H6O3/c1-2(4)3(5)6/h2,4H,1H3,(H,5,6)/t2-/m0/s1
Instrument: Thermo Scientific Q-Exactive Focus
Instrument type: LC-ESI-ITFT
Ms type: MS2
Ion mode: NEGATIVE
Ionization: ESI
Collision energy: 40
Column name: Acquity CSHC18
Retention time: 1.475 min
Base peak: 89.02442
Precursor m/z: 89.02442
Precursor type: [M-H]-
m/z	relative intensity
68.1359	923
69.0811	908
73.3432	924
74.8617	945
77.2498	912
80.0302	956
80.7358	940
82.6018	931
92.6591	999
101.9898	899
