Mass spectrum: CYCLIC AMP; LC-ESI-QTOF; MS2; CE: 40;  [M-H]-
Name: CYCLIC AMP
Class: NA
Formula: C10H12N5O6P
Exact mass: 329.05252
SMILES: [H][C@@]12COP(O)(=O)O[C@@]1([H])[C@@H](O)[C@@H](O2)N1C=NC2=C1N=CN=C2N
InChI: InChI=1S/C10H12N5O6P/c11-8-5-9(13-2-12-8)15(3-14-5)10-6(16)7-4(20-10)1-19-22(17,18)21-7/h2-4,6-7,10,16H,1H2,(H,17,18)(H2,11,12,13)/t4-,6-,7-,10-/m1/s1
Instrument: Agilent 6530Â Q-TOF LC/MS
Instrument type: LC-ESI-QTOF
Ms type: MS2
Ion mode: NEGATIVE
Ionization: ESI
Collision energy: 40
Column name: NA
Retention time: 0.200 min
Base peak: 328.04263
Precursor m/z: 328.04263
Precursor type: [M-H]-
Precursor intensity: 148
m/z	relative intensity
78.9727	120
92.0228	313
107.0442	605
134.0697	999
