Mass spectrum: (20R,22S,25R)-3beta-Acetoxy-22,26-epimino-5alpha-cholestan-20-ol; APCI-ITFT; MS2; CE: CID 35;  [M-H]-
Name: (20R,22S,25R)-3beta-Acetoxy-22,26-epimino-5alpha-cholestan-20-ol
Class: NA
Formula: C29H49NO3
Exact mass: 459.37124
SMILES: C[C@@H](CN1)CC[C@H]1[C@](C)(O)[C@H]2CC[C@@]3([H])[C@]4([H])CC[C@@]5([H])C[C@@H](OC(C)=O)CC[C@]5(C)[C@@]4([H])CC[C@]23C
InChI: InChI=1S/C29H49NO3/c1-18-6-11-26(30-17-18)29(5,32)25-10-9-23-22-8-7-20-16-21(33-19(2)31)12-14-27(20,3)24(22)13-15-28(23,25)4/h18,20-26,30,32H,6-17H2,1-5H3/t18-,20+,21+,22+,23+,24+,25+,26+,27+,28+,29-/m1/s1
Instrument: Orbitrap Elite
Instrument type: APCI-ITFT
Ms type: MS2
Ion mode: NEGATIVE
Ionization: APCI
Collision energy: CID 35
Column name: Acquity CSHC18
Retention time: 0.132 min
Base peak: 458.36290
Precursor m/z: 458.36290
Precursor type: [M-H]-
Precursor intensity: 3028715
m/z	relative intensity
140.1085	242
317.2476	334
317.2971	9
359.2596	64
414.2962	7
442.3317	999
