Mass spectrum: PEP; LC-ESI-QTOF; MS2; CE: 30;  [M-H]-
Name: PEP
Class: NA
Formula: C3H5O6P
Exact mass: 167.9824
SMILES: C=C(C(=O)O)OP(=O)(O)O
InChI: InChI=1S/C3H5O6P/c1-2(3(4)5)9-10(6,7)8/h1H2,(H,4,5)(H2,6,7,8)
Instrument: impact II
Instrument type: LC-ESI-QTOF
Ms type: MS2
Ion mode: NEGATIVE
Ionization: ESI
Collision energy: 30
Column name: Acquity CSHC18
Retention time: 1.915 min
Base peak: 166.9750
Precursor m/z: 166.9750
Precursor type: [M-H]-
m/z	relative intensity
62.9648	2
78.9465	1
78.9595	999
78.9701	41
78.9996	2
79.0156	2
79.0225	2
79.0308	3
79.0902	1
79.096	1
79.1057	1
79.1161	1
79.1275	1
79.1489	1
79.2075	1
79.2302	1
79.9641	2
87.0083	1
96.9698	10
