Mass spectrum: OXOADIPATE; LC-ESI-QTOF; MS2; CE: 10;  [M-H]-
Name: OXOADIPATE
Class: NA
Formula: C6H8O5
Exact mass: 160.03717
SMILES: OC(=O)CCCC(=O)C(O)=O
InChI: InChI=1S/C6H8O5/c7-4(6(10)11)2-1-3-5(8)9/h1-3H2,(H,8,9)(H,10,11)
Instrument: Agilent 6530Â Q-TOF LC/MS
Instrument type: LC-ESI-QTOF
Ms type: MS2
Ion mode: NEGATIVE
Ionization: ESI
Collision energy: 10
Column name: NA
Retention time: 0.200 min
Base peak: 159.03300
Precursor m/z: 159.03300
Precursor type: [M-H]-
Precursor intensity: 135
m/z	relative intensity
41.0071	178
43.0235	226
59.0359	267
87.046	332
115.0511	375
159.0402	999
