Mass spectrum: 4-ACETAMIDOBUTANOATE; LC-ESI-QFT; MS2; CE: 30eV;  [M+H]+
Name: 4-ACETAMIDOBUTANOATE
Class: NA
Formula: C6H11NO3
Exact mass: 145.07389
SMILES: CC(=O)NCCCC(O)=O
InChI: InChI=1S/C6H11NO3/c1-5(8)7-4-2-3-6(9)10/h2-4H2,1H3,(H,7,8)(H,9,10)
Instrument: Q-Exactive Orbitrap, Thermo Scientfic; Ultimate 3000 HPLC, Thermo Scientfic
Instrument type: LC-ESI-QFT
Ms type: MS2
Ion mode: POSITIVE
Ionization: ESI
Collision energy: 30eV
Column name: Acquity CSHC18
Retention time: 1.199 min
Base peak: 146.0812
Precursor m/z: 146.0812
Precursor type: [M+H]+
Precursor intensity: 180
m/z	relative intensity
50.2568	10
52.7726	12
53.0127	14
57.869	15
59.7435	13
69.0343	157
86.0313	15
86.8832	15
87.0447	999
87.0641	509
87.0669	22
103.4987	13
104.0712	671
111.3594	15
122.2512	15
128.0712	163
145.1784	213
146.0816	191
146.1819	24
