Mass spectrum: benzyl (2aS,4S,6aS,6bS,8aS,8bR,9S,12R,14aR,15aS,15bR)-4-hydroxy-6a,8a,9,12-tetramethyl-2,2a,3,4,5,6,6a,6b,7,8,8a,8b,9,11,12,13,14a,15,15a,15b-icosahydronaphtho[2'',1'':4',5']indeno[1',2':5,6]pyrano[3,2-b]pyridine-10(1H)-carboxylate; APCI-ITFT; MS2; CE: 35 CID;  [M+H]+
Name: benzyl (2aS,4S,6aS,6bS,8aS,8bR,9S,12R,14aR,15aS,15bR)-4-hydroxy-6a,8a,9,12-tetramethyl-2,2a,3,4,5,6,6a,6b,7,8,8a,8b,9,11,12,13,14a,15,15a,15b-icosahydronaphtho[2'',1'':4',5']indeno[1',2':5,6]pyrano[3,2-b]pyridine-10(1H)-carboxylate
Class: NA
Formula: C35H49NO4
Exact mass: 547.36616
SMILES: O[C@H]1CC[C@@]2(C)[C@](CC[C@]3([H])[C@]2([H])CC[C@@]4(C)[C@@]3([H])C[C@@]([H])(OC(C[C@@H](C)CN5C(OCC6=CC=CC=C6)=O)=C5[C@H]7C)[C@@]47[H])([H])C1
InChI: InChI=1S/C35H49NO4/c1-21-16-30-32(36(19-21)33(38)39-20-23-8-6-5-7-9-23)22(2)31-29(40-30)18-28-26-11-10-24-17-25(37)12-14-34(24,3)27(26)13-15-35(28,31)4/h5-9,21-22,24-29,31,37H,10-20H2,1-4H3/t21-,22+,24+,25+,26-,27+,28+,29-,31+,34+,35+/m1/s1
Instrument: Orbitrap Elite
Instrument type: APCI-ITFT
Ms type: MS2
Ion mode: POSITIVE
Ionization: APCI
Collision energy: 35 CID
Column name: Acquity CSHC18
Retention time: 0.428 min
Base peak: 548.37260
Precursor m/z: 548.37260
Precursor type: [M+H]+
Precursor intensity: 324273100
m/z	relative intensity
174.1283	25
186.1286	2
188.1436	1
202.1234	10
204.139	15
208.0983	1
214.1591	1
218.118	6
230.1187	2
248.127	3
255.2116	4
258.1496	1
263.1818	1
271.2052	1
273.2218	20
274.2249	2
283.2428	4
289.2158	7
299.2397	3
300.1605	4
301.2538	18
314.1735	2
357.2582	4
375.2687	66
378.3154	1
384.3282	17
394.3084	4
396.3245	16
397.311	1
398.3422	19
407.2913	3
411.314	2
412.3213	134
413.3263	26
421.31	1
422.303	1
438.3003	2
439.3088	1
440.3187	51
455.3035	2
456.3108	52
457.3207	32
469.3484	1
485.3677	1
486.3755	28
487.3586	1
502.3658	1
503.3693	25
504.3845	999
512.3574	2
529.3529	2
530.3648	39
548.384	1
