Mass spectrum: 1-myristoyl-2-hydroxy-sn-glycero-3-phosphoethanolamine; ESI-TOF; MS2; CE: 6.0000000;  [M+H]+
Name: 1-myristoyl-2-hydroxy-sn-glycero-3-phosphoethanolamine
Class: NA
Formula: C19H40NO7P
Exact mass: 425.25424
SMILES: [H]OC([H])(C([H])([H])OC(=O)C([H])([H])C([H])([H])C([H])([H])C([H])([H])C([H])([H])C([H])([H])C([H])([H])C([H])([H])C([H])([H])C([H])([H])C([H])([H])C([H])([H])C([H])([H])[H])C([H])([H])OP(=O)([O-])OC([H])([H])C([H])([H])[N+]([H])([H])[H]
InChI: InChI=1S/C19H40NO7P/c1-2-3-4-5-6-7-8-9-10-11-12-13-19(22)25-16-18(21)17-27-28(23,24)26-15-14-20/h18,21H,2-17,20H2,1H3,(H,23,24)
Instrument: waters xevo g2 TOF
Instrument type: ESI-TOF
Ms type: MS2
Ion mode: POSITIVE
Ionization: ESI
Collision energy: 6.0000000
Column name: Acquity CSHC18
Retention time: 5.335 min
Base peak: 426.26224
Precursor m/z: 426.26224
Precursor type: [M+H]+
m/z	relative intensity
143.9596	4
192.9576	4
198.0526	4
216.0655	6
232.6094	10
254.2487	13
271.9832	6
285.2432	235
286.2467	46
287.2489	3
347.1288	2
365.2085	35
366.2114	3
403.1553	150
404.1595	18
405.1583	2
407.1482	2
408.2518	236
409.2547	52
410.2566	8
414.7109	8
421.1659	52
422.17	4
423.7134	5
426.262	999
427.265	222
