Mass spectrum: 19(R)-hydroxy Prostaglandin E2; ESI-TOF; MS2; CE: 6.0000000;  [M+H]+
Name: 19(R)-hydroxy Prostaglandin E2
Class: NA
Formula: C20H32O6
Exact mass: 368.21989
SMILES: C[C@@H](O)CCC[C@H](O)\C=C\[C@H]1[C@H](O)CC(=O)[C@@H]1C\C=C/CCCC(O)=O
InChI: InChI=1S/C20H32O6/c1-14(21)7-6-8-15(22)11-12-17-16(18(23)13-19(17)24)9-4-2-3-5-10-20(25)26/h2,4,11-12,14-17,19,21-22,24H,3,5-10,13H2,1H3,(H,25,26)/b4-2-,12-11+/t14-,15+,16-,17-,19-/m1/s1
Instrument: waters xevo g2 TOF
Instrument type: ESI-TOF
Ms type: MS2
Ion mode: POSITIVE
Ionization: ESI
Collision energy: 6.0000000
Column name: Acquity CSHC18
Retention time: 2.564 min
Base peak: 369.22789
Precursor m/z: 369.22789
Precursor type: [M+H]+
m/z	relative intensity
98.9654	7
105.0716	2
123.0867	4
131.0871	4
175.1095	3
185.0961	5
186.095	12
203.1081	15
205.1216	7
207.1066	30
213.1287	28
215.1083	10
217.1224	12
231.1367	54
235.1427	8
245.1939	8
261.1826	61
269.1887	30
271.1692	39
272.1727	6
273.1833	23
277.0503	7
279.174	78
287.2047	36
289.1803	55
297.1855	452
298.1888	95
315.205	999
316.1998	217
317.2007	12
333.2048	842
334.21	181
335.2139	18
349.2008	5
351.2166	381
352.2174	72
352.6795	5
353.2182	8
360.1053	8
