Mass spectrum: 2-PHOSPHOGLYCERATE; LC-ESI-QFT; MS2; CE: 30eV;  [M+H]+
Name: 2-PHOSPHOGLYCERATE
Class: NA
Formula: C3H7O7P
Exact mass: 185.99294
SMILES: OCC(OP(O)(O)=O)C(O)=O
InChI: InChI=1S/C3H7O7P/c4-1-2(3(5)6)10-11(7,8)9/h2,4H,1H2,(H,5,6)(H2,7,8,9)
Instrument: Q-Exactive Orbitrap, Thermo Scientfic; Ultimate 3000 HPLC, Thermo Scientfic
Instrument type: LC-ESI-QFT
Ms type: MS2
Ion mode: POSITIVE
Ionization: ESI
Collision energy: 30eV
Column name: Acquity CSHC18
Retention time: 0.635 min
Base peak: 187.0002
Precursor m/z: 187.0002
Precursor type: [M+H]+
Precursor intensity: 174
m/z	relative intensity
52.338	7
53.0083	7
55.9269	6
55.9352	14
56.2892	6
57.879	7
59.6114	7
59.9079	6
60.0452	8
60.4447	6
62.6825	6
67.0386	6
70.0657	7
73.2319	8
74.0972	91
78.6183	8
81.0342	17
84.0452	14
84.5515	8
88.0222	10
89.024	11
90.9482	10
91.9563	19
92.0319	8
96.045	54
97.029	16
98.0607	49
98.9848	999
102.2524	8
102.8269	9
109.0289	17
113.964	17
114.0667	54
114.5612	10
114.9721	36
115.4144	9
116.9952	35
118.549	8
119.9509	13
119.9756	86
125.254	8
126.0554	171
127.0394	14
127.0587	10
130.8878	8
131.9745	15
138.0553	700
139.0585	128
140.995	748
144.0659	267
145.0692	18
163.9406	36
163.9653	17
168.0659	118
168.9901	138
181.9518	16
186.0765	150
186.1857	8
187.0006	101
187.0802	15
