Mass spectrum: artemisinin; LC-ESI-QTOF; MS2; CE: 15.00;  [M-H2O+H]+
Name: artemisinin
Class: NA
Formula: C15H22O5
Exact mass: 282.1467
SMILES: CC1CCC2C(C(=O)OC3C24C1CCC(O3)(OO4)C)C
InChI: InChI=1S/C15H22O5/c1-8-4-5-11-9(2)12(16)17-13-15(11)10(8)6-7-14(3,18-13)19-20-15/h8-11,13H,4-7H2,1-3H3
Instrument: Bruker MicrOTOF-Q
Instrument type: LC-ESI-QTOF
Ms type: MS2
Ion mode: POSITIVE
Ionization: ESI
Collision energy: 15.00
Column name: Acquity CSHC18
Retention time: NA
Base peak: 265.1434
Precursor m/z: 265.1434
Precursor type: [M-H2O+H]+
m/z	relative intensity
133.0816	999
