Mass spectrum: 3-deoxy sphingosine; ESI-TOF; MS2; CE: 0.6458333;  [M+H]+
Name: 3-deoxy sphingosine
Class: NA
Formula: C18H37NO
Exact mass: 283.28751
SMILES: [H]OC([H])([H])C([H])(N([H])[H])C([H])([H])C([H])=C([H])C([H])([H])C([H])([H])C([H])([H])C([H])([H])C([H])([H])C([H])([H])C([H])([H])C([H])([H])C([H])([H])C([H])([H])C([H])([H])C([H])([H])C([H])([H])[H]
InChI: InChI=1S/C18H37NO/c1-2-3-4-5-6-7-8-9-10-11-12-13-14-15-16-18(19)17-20/h14-15,18,20H,2-13,16-17,19H2,1H3
Instrument: waters xevo g2 TOF
Instrument type: ESI-TOF
Ms type: MS2
Ion mode: POSITIVE
Ionization: ESI
Collision energy: 0.6458333
Column name: Acquity CSHC18
Retention time: 4.310 min
Base peak: 284.29551
Precursor m/z: 284.29551
Precursor type: [M+H]+
m/z	relative intensity
55.0556	15
60.0457	44
67.0553	214
68.0589	13
69.0707	182
71.0868	25
79.0551	17
81.0709	647
82.0741	45
83.0863	283
84.0894	23
85.102	36
93.0711	18
95.0862	999
96.0897	82
97.102	290
98.1051	25
107.0866	4
109.1019	493
110.1051	42
111.1174	93
112.1208	8
123.1173	142
124.1208	10
125.1329	11
137.133	34
151.1484	6
186.0427	5
193.1952	3
207.2108	2
249.2588	7
254.2815	3
266.2856	79
267.2861	12
284.296	430
285.2992	91
