Mass spectrum: 5-AMINOPENTANOATE; LC-ESI-QFT; MS2; CE: 30eV;  [M+H]+
Name: 5-AMINOPENTANOATE
Class: NA
Formula: C5H11NO2
Exact mass: 117.07898
SMILES: NCCCCC(O)=O
InChI: InChI=1S/C5H11NO2/c6-4-2-1-3-5(7)8/h1-4,6H2,(H,7,8)
Instrument: Q-Exactive Orbitrap, Thermo Scientfic; Ultimate 3000 HPLC, Thermo Scientfic
Instrument type: LC-ESI-QFT
Ms type: MS2
Ion mode: POSITIVE
Ionization: ESI
Collision energy: 30eV
Column name: Acquity CSHC18
Retention time: 0.606 min
Base peak: 118.0863
Precursor m/z: 118.0863
Precursor type: [M+H]+
Precursor intensity: 133
m/z	relative intensity
53.0395	17
55.0186	2
55.0551	999
55.9352	2
56.0503	872
56.0584	22
56.9431	3
57.0344	15
57.0537	10
58.066	92
58.3492	2
58.9434	3
59.05	268
59.0738	82
59.7751	2
59.9309	2
66.0625	2
71.9301	2
72.0816	77
72.0964	2
72.938	13
73.0657	6
76.9338	3
82.0659	93
82.0681	5
83.0499	576
83.0692	2
84.0533	17
88.8516	2
89.8105	2
90.9484	4
91.0552	11
98.2296	2
99.5166	3
100.0764	946
101.0796	28
102.0637	97
102.0669	5
103.166	2
113.4577	3
116.9724	24
117.9803	15
118.9679	12
119.0863	4
119.0901	60
