Mass spectrum: N-ACETYLGLUCOSAMINE; LC-ESI-QFT; MS2; CE: 30eV;  [M-H]-
Name: N-ACETYLGLUCOSAMINE
Class: NA
Formula: C8H15NO6
Exact mass: 221.08994
SMILES: CC(=O)N[C@H]1C(O)O[C@H](CO)[C@@H](O)[C@@H]1O
InChI: InChI=1S/C8H15NO6/c1-3(11)9-5-7(13)6(12)4(2-10)15-8(5)14/h4-8,10,12-14H,2H2,1H3,(H,9,11)/t4-,5-,6-,7-,8?/m1/s1
Instrument: Q-Exactive Orbitrap, Thermo Scientfic; Ultimate 3000 HPLC, Thermo Scientfic
Instrument type: LC-ESI-QFT
Ms type: MS2
Ion mode: NEGATIVE
Ionization: ESI
Collision energy: 30eV
Column name: Acquity CSHC18
Retention time: 0.620 min
Base peak: 220.0827
Precursor m/z: 220.0827
Precursor type: [M-H]-
Precursor intensity: 180
m/z	relative intensity
52.402	7
55.0172	9
56.7903	7
58.0281	20
59.0122	999
60.0155	12
68.218	7
71.0121	79
74.6994	8
76.9682	14
78.0062	7
82.3632	8
83.0098	9
83.0122	41
88.2328	7
89.0226	168
100.0386	318
100.3483	8
101.0226	224
103.1562	7
103.9185	10
107.7528	7
115.2688	8
116.9812	17
119.0333	122
119.3677	8
130.0215	9
138.4517	8
139.9139	8
148.9533	981
149.3995	7
154.2928	8
156.2857	9
161.8222	8
175.039	8
179.886	8
212.2092	8
219.845	14
219.9832	48
220.9388	37
227.7047	9
