Mass spectrum: Allantoin; LC-ESI-ITFT; MS2; CE: 60;  [M+H]+
Name: Allantoin
Class: Organoheterocyclic compounds; Azoles; Imidazoles
Formula: C4H6N4O3
Exact mass: 158.04399
SMILES: NC(=O)NC1NC(=O)NC1=O
InChI: InChI=1S/C4H6N4O3/c5-3(10)6-1-2(9)8-4(11)7-1/h1H,(H3,5,6,10)(H2,7,8,9,11)
Instrument: Thermo Scientific Q-Exactive Focus
Instrument type: LC-ESI-ITFT
Ms type: MS2
Ion mode: POSITIVE
Ionization: ESI
Collision energy: 60
Column name: Acquity CSHC18
Retention time: 1.749 min
Base peak: 159.05127
Precursor m/z: 159.05127
Precursor type: [M+H]+
m/z	relative intensity
98.4006	994
102.7789	872
104.7902	865
112.1823	868
116.2413	856
121.414	856
144.3616	999
147.4135	851
150.348	834
174.467	912
