Mass spectrum: Phenylpyruvic acid; LC-ESI-ITFT; MS2; CE: 10;  [M-H]-
Name: Phenylpyruvic acid
Class: Benzenoids; Benzene and substituted derivatives; Phenylpyruvic acid derivatives
Formula: C9H8O3
Exact mass: 164.04734
SMILES: OC(=O)C(=O)CC1=CC=CC=C1
InChI: InChI=1S/C9H8O3/c10-8(9(11)12)6-7-4-2-1-3-5-7/h1-5H,6H2,(H,11,12)
Instrument: Thermo Scientific Q-Exactive Focus
Instrument type: LC-ESI-ITFT
Ms type: MS2
Ion mode: NEGATIVE
Ionization: ESI
Collision energy: 10
Column name: Acquity CSHC18
Retention time: 0.360 min
Base peak: 163.04007
Precursor m/z: 163.04007
Precursor type: [M-H]-
m/z	relative intensity
91.0542	999
93.0334	4
96.0099	3
101.5749	3
109.9438	3
129.3312	3
135.0441	23
141.1491	3
163.0392	25
184.9408	3
