Mass spectrum: vitexin; LC-ESI-ITFT; MS2; CE: 0.3;  [M-H]-
Name: vitexin
Class: flavones
Formula: C21H20O10
Exact mass: 432.1056
SMILES: C1=CC(=CC=C1C2=CC(=O)C3=C(O2)C(=C(C=C3O)O)C4C(C(C(C(O4)CO)O)O)O)O
InChI: InChI=1S/C21H20O10/c22-7-14-17(27)18(28)19(29)21(31-14)16-11(25)5-10(24)15-12(26)6-13(30-20(15)16)8-1-3-9(23)4-2-8/h1-6,14,17-19,21-25,27-29H,7H2
Instrument: LTQ-Orbitrap XL hybrid mass spectrometer (Thermo Scientific)
Instrument type: LC-ESI-ITFT
Ms type: MS2
Ion mode: NEGATIVE
Ionization: ESI
Collision energy: 0.3
Column name: Acquity CSHC18
Retention time: 7.008 min
Base peak: 431.0984
Precursor m/z: 431.0984
Precursor type: [M-H]-
Precursor intensity: 14866250
m/z	relative intensity
109.9729	1
113.1371	1
118.1423	1
118.6726	1
194.5085	1
194.5263	1
196.1767	3
234.5705	1
269.0458	1
283.0613	17
284.0647	1
287.2696	6
306.3373	1
307.1161	1
307.4282	1
307.8971	2
308.683	6
309.4705	4
309.4914	1
309.7866	3
310.2618	2
310.9187	1
310.9312	1
310.9435	1
310.9504	1
310.9585	2
311.0038	3
311.0561	999
311.0691	3
311.0948	4
311.1321	2
311.1492	2
311.1612	1
311.1781	1
311.1906	1
311.3752	1
311.8538	2
312.0593	70
312.1717	1
312.655	1
313.4572	2
314.2628	1
314.7491	1
315.0726	1
315.8851	1
323.0559	1
335.6074	1
341.0664	76
342.0696	5
351.5406	1
353.0665	4
383.0766	1
431.0994	1
