Mass spectrum: D-Trehalose; LC-ESI-QTOF; MS2; CE: 21.53;  [M+HCOOH-H]-
Name: D-Trehalose
Class: NA
Formula: C12H22O11
Exact mass: 342.1162
SMILES: C(C1C(C(C(C(O1)OC2C(C(C(C(O2)CO)O)O)O)O)O)O)O
InChI: InChI=1S/C12H22O11/c13-1-3-5(15)7(17)9(19)11(21-3)23-12-10(20)8(18)6(16)4(2-14)22-12/h3-20H,1-2H2
Instrument: Bruker MicrOTOF-Q
Instrument type: LC-ESI-QTOF
Ms type: MS2
Ion mode: NEGATIVE
Ionization: ESI
Collision energy: 21.53
Column name: Acquity CSHC18
Retention time: NA
Base peak: 387.1144
Precursor m/z: 387.1144
Precursor type: [M+HCOOH-H]-
m/z	relative intensity
44.9973	92
45.4688	64
46.8839	76
48.124	121
49.3518	87
54.0518	121
54.5881	92
62.6929	112
67.1579	129
68.455	73
74.0398	109
76.076	132
77.6257	73
80.3199	92
80.8798	61
82.2258	78
82.8836	76
85.6307	143
86.4951	115
88.95	97
97.1073	87
97.8604	107
98.8537	116
100.977	402
108.0732	83
109.4509	92
113.1144	999
113.9563	143
118.4638	101
119.0383	701
119.9297	107
120.4392	115
121.5836	92
125.0134	76
125.7814	59
129.015	67
131.0247	222
132.0369	90
143.0347	884
145.3691	70
149.0589	270
149.4783	123
150.4471	90
157.5511	67
161.0426	360
178.3668	174
179.0165	543
181.0628	56
197.3359	56
221.0612	270
271.7459	61
315.6794	78
322.3101	73
339.8251	143
340.4414	59
340.9838	574
342.1175	256
343.1049	152
347.9408	84
363.8906	59
379.6848	87
469.7392	95
518.7064	70
580.1158	78
636.8527	61
683.0824	59
828.9235	61
849.4702	59
905.3845	78
935.0349	101
961.4858	87
