Mass spectrum: 3,4-Dimethoxyphenethylamine; LC-ESI-QTOF; MS2; CE: 15.00;  [M+H]+
Name: 3,4-Dimethoxyphenethylamine
Class: NA
Formula: C10H15NO2
Exact mass: 181.1103
SMILES: COC1=C(C=C(C=C1)CCN)OC
InChI: InChI=1S/C10H15NO2/c1-12-9-4-3-8(5-6-11)7-10(9)13-2/h3-4,7H,5-6,11H2,1-2H3
Instrument: Bruker MicrOTOF-Q
Instrument type: LC-ESI-QTOF
Ms type: MS2
Ion mode: POSITIVE
Ionization: ESI
Collision energy: 15.00
Column name: Acquity CSHC18
Retention time: NA
Base peak: 182.1176
Precursor m/z: 182.1176
Precursor type: [M+H]+
m/z	relative intensity
135.0596	999
