Mass spectrum: Myricetin; LC-ESI-QTOF; MS2; CE: 50eV;  [M-H]-
Name: Myricetin
Class: Flavonol
Formula: C15H10O8
Exact mass: 318.0376
SMILES: C1=C(C=C(C(=C1O)O)O)C2=C(C(=O)C3=C(C=C(C=C3O2)O)O)O
InChI: InChI=1S/C15H10O8/c16-6-3-7(17)11-10(4-6)23-15(14(22)13(11)21)5-1-8(18)12(20)9(19)2-5/h1-4,16-20,22H
Instrument: TIMS-TOF Pro, Bruker Daltonik; Elute UHPLC System, Bruker Daltonik
Instrument type: LC-ESI-QTOF
Ms type: MS2
Ion mode: NEGATIVE
Ionization: ESI
Collision energy: 50eV
Column name: Acquity CSHC18
Retention time: 5.965 min
Base peak: 317.0258
Precursor m/z: 317.0258
Precursor type: [M-H]-
Precursor intensity: 27613
m/z	relative intensity
23.5562	5
36.8889	5
40.3278	4
41.0025	38
42.1288	3
52.8147	3
55.0178	7
56.1805	4
60.48	6
64.0277	9
65.0207	84
66.1931	5
71.01	7
81.0334	55
83.0126	82
84.1918	7
88.9996	7
93.0337	3
95.466	6
96.0183	8
102.0365	3
107.0124	100
108.0162	19
108.6793	3
109.0132	190
109.3262	3
110.0297	18
117.0312	7
119.013	8
123.0074	5
125.0213	24
133.0297	4
135.0083	4
137.0219	382
137.2268	3
137.4578	3
137.8389	3
138.0259	36
146.0338	3
148.0144	8
150.7741	6
151.0008	157
151.3381	4
152.0022	16
153.0108	3
157.4089	8
159.9332	3
162.9966	5
164.0087	12
165.0158	13
166.6707	4
174.0315	3
178.9961	138
179.9974	13
180.9994	4
186.3715	7
192.0014	9
193.0121	11
212.3264	4
219.0275	3
229.0571	3
243.0233	4
255.0278	3
274.0064	3
288.0192	17
289.0289	15
299.0076	5
299.9872	6
316.0075	22
316.8097	3
316.9247	5
317.023	999
317.1971	4
317.3206	4
317.5257	5
