Mass spectrum: 12:0 DG; ESI-TOF; MS2; CE: 6.0000000;  [M+H]+
Name: 12:0 DG
Class: NA
Formula: C27H52O5
Exact mass: 456.38147
SMILES: [H]OC([H])([H])C([H])(OC(=O)C([H])([H])C([H])([H])C([H])([H])C([H])([H])C([H])([H])C([H])([H])C([H])([H])C([H])([H])C([H])([H])C([H])([H])C([H])([H])[H])C([H])([H])OC(=O)C([H])([H])C([H])([H])C([H])([H])C([H])([H])C([H])([H])C([H])([H])C([H])([H])C([H])([H])C([H])([H])C([H])([H])C([H])([H])[H]
InChI: InChI=1S/C27H52O5/c1-3-5-7-9-11-13-15-17-19-21-26(29)31-24-25(23-28)32-27(30)22-20-18-16-14-12-10-8-6-4-2/h25,28H,3-24H2,1-2H3
Instrument: waters xevo g2 TOF
Instrument type: ESI-TOF
Ms type: MS2
Ion mode: POSITIVE
Ionization: ESI
Collision energy: 6.0000000
Column name: Acquity CSHC18
Retention time: 10.353 min
Base peak: 457.38947
Precursor m/z: 457.38947
Precursor type: [M+H]+
m/z	relative intensity
81.0708	1
95.0862	7
109.1022	7
123.1182	1
131.002	1
157.0882	15
165.165	2
166.0938	5
177.6016	4
183.1751	13
201.1857	5
239.1325	25
240.1365	3
248.1727	164
248.6743	24
257.212	999
258.2154	177
259.2174	19
268.6865	9
269.1881	4
313.1689	103
314.1724	7
329.1411	1
393.2635	4
394.2663	8
395.2641	2
439.3785	755
440.3813	239
441.3844	40
457.3884	11
