Mass spectrum: 5,6-Dihydroxyfuro[2,3-h]chromen-2-one; LC-ESI-ITFT; MS2; CE: 45eV;  [M+H]+
Name: 5,6-Dihydroxyfuro[2,3-h]chromen-2-one
Class: coumarin
Formula: C11H6O5
Exact mass: 218.0215
SMILES: C1=CC(=O)OC2=C1C(=C(C3=C2C=CO3)O)O
InChI: InChI=1S/C11H6O5/c12-7-2-1-5-8(13)9(14)11-6(3-4-15-11)10(5)16-7/h1-4,13-14H
Instrument: LTQ Orbitrap XL, Thermo Scientfic; Dionex Ultimate 300
Instrument type: LC-ESI-ITFT
Ms type: MS2
Ion mode: POSITIVE
Ionization: ESI
Collision energy: 45eV
Column name: Alltima C18
Retention time: 22.18 min
Base peak: 219.0279
Precursor m/z: 219.0279
Precursor type: [M+H]+
m/z	relative intensity
120.9966	2
138.7902	2
148.9984	3
161.0624	6
172.8997	999
186.9292	15
200.9937	16
