Mass spectrum: 6-Hydroxyindole; LC-ESI-QTOF; MS2; CE: 15.00;  [2M-3H]-
Name: 6-Hydroxyindole
Class: NA
Formula: C8H7NO
Exact mass: 133.0528
SMILES: C1=CC(=CC2=C1C=CN2)O
InChI: InChI=1S/C8H7NO/c10-7-2-1-6-3-4-9-8(6)5-7/h1-5,9-10H
Instrument: Bruker MicrOTOF-Q
Instrument type: LC-ESI-QTOF
Ms type: MS2
Ion mode: NEGATIVE
Ionization: ESI
Collision energy: 15.00
Column name: Acquity CSHC18
Retention time: NA
Base peak: 263.0826
Precursor m/z: 263.0826
Precursor type: [2M-3H]-
m/z	relative intensity
65.9956	41
68.9182	71
80.0166	31
84.0489	54
90.2535	33
90.9609	36
95.6561	38
103.9451	35
120.5254	39
122.5382	44
130.5294	75
131.023	95
132.0456	292
134.0542	51
156.5112	51
168.9131	67
169.9156	39
171.0373	76
182.0628	62
187.1408	44
191.1141	39
192.302	47
193.0705	43
197.0481	52
197.6942	41
199.469	35
205.9303	57
207.8721	62
216.6111	43
220.0674	55
221.0518	60
221.9814	33
226.1322	55
227.771	35
235.0952	51
236.0298	98
238.7345	59
240.365	31
243.1205	46
245.0592	143
246.0689	49
259.4641	38
261.058	127
262.1656	53
263.1208	999
264.078	145
276.2876	49
320.8134	44
360.8836	38
384.6425	36
403.8083	44
411.0902	38
428.2714	35
480.3508	49
501.2313	60
561.0499	33
629.9471	60
680.1625	43
722.0848	38
729.6449	59
759.9032	43
786.2848	59
827.3876	59
852.5913	39
862.6482	63
958.0328	36
1004.4665	33
