Mass spectrum: DETHIOBIOTIN; LC-ESI-QTOF; MS2; CE: 40;  [M+H]+
Name: DETHIOBIOTIN
Class: NA
Formula: C10H18N2O3
Exact mass: 214.13174
SMILES: C[C@@H]1NC(=O)N[C@@H]1CCCCCC(O)=O
InChI: InChI=1S/C10H18N2O3/c1-7-8(12-10(15)11-7)5-3-2-4-6-9(13)14/h7-8H,2-6H2,1H3,(H,13,14)(H2,11,12,15)/t7-,8+/m0/s1
Instrument: Agilent 6530Â Q-TOF LC/MS
Instrument type: LC-ESI-QTOF
Ms type: MS2
Ion mode: POSITIVE
Ionization: ESI
Collision energy: 40
Column name: NA
Retention time: 0.200 min
Base peak: 215.14169
Precursor m/z: 215.14169
Precursor type: [M+H]+
Precursor intensity: 88.5
m/z	relative intensity
41.1107	18
42.0534	19
43.0572	19
44.0558	19
45.0407	20
51.0317	20
53.0596	21
54.0431	22
55.1518	22
55.4477	23
55.579	23
56.0607	24
56.2927	24
57.0552	25
58.0869	25
59.0518	28
65.0591	32
66.0521	33
67.0946	34
67.3443	34
68.0701	38
69.081	42
70.09	43
71.0768	44
72.0731	47
73.0716	48
77.066	48
78.0476	49
79.0839	49
79.8861	51
80.0706	52
81.095	53
82.0728	54
83.0779	64
84.0891	68
84.9558	68
85.0589	69
86.0688	71
91.0845	72
92.0524	76
93.0918	78
94.087	81
95.1043	81
96.0765	104
97.0677	118
98.0839	128
99.0825	131
100.0776	137
104.061	151
105.0719	152
106.0759	166
107.0847	167
108.0863	183
109.1046	204
110.1058	212
111.0739	216
112.097	221
113.073	235
115.0623	266
117.0751	267
118.057	287
119.0929	317
120.0737	337
121.0807	341
122.0633	359
123.0435	373
125.0798	376
126.1203	384
134.1081	428
136.1266	428
150.0811	581
151.115	999
179.1185	18
