Mass spectrum: N-(3-INDOLylacetyl)-L-leucine; LC-ESI-QTOF; MS2; CE: -10, -35, -60V;  [M-H]-
Name: N-(3-INDOLylacetyl)-L-leucine
Class: NA
Formula: C16H20N2O3
Exact mass: 288.1474
SMILES: CC(C)CC(C(=O)O)NC(=O)CC1=CNC2=CC=CC=C21
InChI: InChI=1S/C16H20N2O3/c1-10(2)7-14(16(20)21)18-15(19)8-11-9-17-13-6-4-3-5-12(11)13/h3-6,9-10,14,17H,7-8H2,1-2H3,(H,18,19)(H,20,21)
Instrument: TripleToF 5600; Sciex
Instrument type: LC-ESI-QTOF
Ms type: MS2
Ion mode: NEGATIVE
Ionization: ESI
Collision energy: -10, -35, -60V
Column name: Acquity CSHC18
Retention time: 15.650 min
Base peak: 287.1390
Precursor m/z: 287.1390
Precursor type: [M-H]-
Precursor intensity: 2541274
m/z	relative intensity
84.0784	9
116.0489	15
128.0514	96
130.0883	999
131.0901	13
156.0472	140
243.1521	33
287.1379	197
