Mass spectrum: NAD; LC-ESI-QTOF; MS2; CE: 15 / 50;  [M+H]+
Name: NAD
Class: NA
Formula: C21H27N7O14P2
Exact mass: 663.10912
SMILES: C1=CC(=C[N+](=C1)C2C(C(C(O2)COP(=O)([O-])OP(=O)(O)OCC3C(C(C(O3)N4C=NC5=C(N=CN=C54)N)O)O)O)O)C(=O)N
InChI: InChI=1S/C21H27N7O14P2/c22-17-12-19(25-7-24-17)28(8-26-12)21-16(32)14(30)11(41-21)6-39-44(36,37)42-43(34,35)38-5-10-13(29)15(31)20(40-10)27-3-1-2-9(4-27)18(23)33/h1-4,7-8,10-11,13-16,20-21,29-32H,5-6H2,(H5-,22,23,24,25,33,34,35,36,37)
Instrument: impact II
Instrument type: LC-ESI-QTOF
Ms type: MS2
Ion mode: POSITIVE
Ionization: ESI
Collision energy: 15 / 50
Column name: Acquity CSHC18
Retention time: 0.551 min
Base peak: 664.11640
Precursor m/z: 664.11640
Precursor type: [M+H]+
m/z	relative intensity
136.0691	714
664.6192	999
