Mass spectrum: (3S,5S,8R,9S,10S,13S,14S,16R,17R)-10,13-dimethyl-17-((S)-1-((S)-5-methyl-3-oxo-3,4,5,6-tetrahydropyridin-2-yl)ethyl)hexadecahydro-1H-cyclopenta[a]phenanthrene-3,16-diyl diacetate; APCI-ITFT; MS2; CE: 35 CID;  [M+H]+
Name: (3S,5S,8R,9S,10S,13S,14S,16R,17R)-10,13-dimethyl-17-((S)-1-((S)-5-methyl-3-oxo-3,4,5,6-tetrahydropyridin-2-yl)ethyl)hexadecahydro-1H-cyclopenta[a]phenanthrene-3,16-diyl diacetate
Class: NA
Formula: C31H47NO5
Exact mass: 513.34542
SMILES: C[C@@]12[C@](CC[C@]3([H])[C@@]([H])2CC[C@@]4(C)[C@@]3([H])C[C@@H](OC(C)=O)[C@]4([H])[C@H](C)C5=NC[C@@H](C)CC5=O)([H])C[C@@H](OC(C)=O)CC1
InChI: InChI=1S/C31H47NO5/c1-17-13-26(35)29(32-16-17)18(2)28-27(37-20(4)34)15-25-23-8-7-21-14-22(36-19(3)33)9-11-30(21,5)24(23)10-12-31(25,28)6/h17-18,21-25,27-28H,7-16H2,1-6H3/t17-,18-,21-,22-,23+,24-,25-,27+,28-,30-,31-/m0/s1
Instrument: Orbitrap Elite
Instrument type: APCI-ITFT
Ms type: MS2
Ion mode: POSITIVE
Ionization: APCI
Collision energy: 35 CID
Column name: Acquity CSHC18
Retention time: 0.298 min
Base peak: 514.35180
Precursor m/z: 514.35180
Precursor type: [M+H]+
Precursor intensity: 13869650
m/z	relative intensity
178.1237	2
255.2092	69
315.2338	182
376.2982	5
426.3403	9
436.3249	11
440.3523	9
454.3325	999
484.3631	3
496.3432	3
500.3206	3
501.3656	3
505.8705	3
