Mass spectrum: 1,2-didocosahexaenoyl-sn-glycero-3-phosphocholine; ESI-TOF; MS2; CE: 0.6458333;  [M+H]+
Name: 1,2-didocosahexaenoyl-sn-glycero-3-phosphocholine
Class: NA
Formula: C52H80NO8P
Exact mass: 877.56216
SMILES: [H]C(=C([H])C([H])([H])C([H])=C([H])C([H])([H])C([H])=C([H])C([H])([H])C([H])([H])[H])C([H])([H])C([H])=C([H])C([H])([H])C([H])=C([H])C([H])([H])C([H])=C([H])C([H])([H])C([H])([H])C(=O)OC([H])([H])C([H])(OC(=O)C([H])([H])C([H])([H])C([H])=C([H])C([H])([H])C([H])=C([H])C([H])([H])C([H])=C([H])C([H])([H])C([H])=C([H])C([H])([H])C([H])=C([H])C([H])([H])C([H])=C([H])C([H])([H])C([H])([H])[H])C([H])([H])OP(=O)([O-])OC([H])([H])C([H])([H])[N+](C([H])([H])[H])(C([H])([H])[H])C([H])([H])[H]
InChI: InChI=1S/C52H80NO8P/c1-6-8-10-12-14-16-18-20-22-24-26-28-30-32-34-36-38-40-42-44-51(54)58-48-50(49-60-62(56,57)59-47-46-53(3,4)5)61-52(55)45-43-41-39-37-35-33-31-29-27-25-23-21-19-17-15-13-11-9-7-2/h8-11,14-17,20-23,26-29,32-35,38-41,50H,6-7,12-13,18-19,24-25,30-31,36-37,42-49H2,1-5H3
Instrument: waters xevo g2 TOF
Instrument type: ESI-TOF
Ms type: MS2
Ion mode: POSITIVE
Ionization: ESI
Collision energy: 0.6458333
Column name: Acquity CSHC18
Retention time: 10.664 min
Base peak: 878.57016
Precursor m/z: 878.57016
Precursor type: [M+H]+
m/z	relative intensity
73.0482	21
86.0976	59
104.1077	9
125.0007	7
131.0865	6
147.0665	56
149.0455	18
163.0164	5
181.0261	8
184.0741	999
185.0771	58
186.0782	8
221.0854	13
222.0871	5
231.0685	5
242.0407	6
248.9893	8
265.0202	20
279.0477	35
279.5486	15
280.0472	13
281.0523	257
282.0527	72
283.0501	46
284.0494	7
326.9666	36
327.9656	9
328.9637	8
341.0186	26
342.0178	5
355.0689	6
367.195	269
368.1982	64
369.201	6
415.0353	38
416.0369	14
417.0348	11
477.2675	7
491.2421	18
503.1079	12
504.1092	6
505.1004	3
523.7398	3
543.1193	51
544.1171	12
550.33	511
551.3334	100
552.3354	33
603.0912	8
619.0625	3
621.0609	1
691.1351	7
692.1357	4
695.5029	28
696.5053	32
697.507	3
717.4849	20
718.4793	8
733.9247	12
734.4324	6
841.478	28
842.4799	17
878.5688	851
879.5723	506
