Mass spectrum: Ginkgolide A; LC-ESI-QFT; MS2; CE: 15,30,45 (NCE);  [2M+NH4]+
Name: Ginkgolide A
Class: NA
Formula: C20H24O9
Exact mass: 408.1420
SMILES: CC1C(=O)OC2CC34C5CC(C(C)(C)C)C33C(O)C(=O)OC3OC4(C(=O)O5)C12O
InChI: InChI=1S/C20H24O9/c1-7-12(22)26-10-6-17-9-5-8(16(2,3)4)18(17)11(21)13(23)28-15(18)29-20(17,14(24)27-9)19(7,10)25/h7-11,15,21,25H,5-6H2,1-4H3
Instrument: QE Focus, Thermo Scientfic; UPLC I-Class, Waters
Instrument type: LC-ESI-QFT
Ms type: MS2
Ion mode: POSITIVE
Ionization: ESI
Collision energy: 15,30,45 (NCE)
Column name: Acquity CSHC18
Retention time: 2.071 min
Base peak: 834.3174
Precursor m/z: 834.3174
Precursor type: [2M+NH4]+
Precursor intensity: 3188086
m/z	relative intensity
59.2848	4
65.5321	4
65.6687	3
70.7327	4
78.7982	4
85.4888	4
89.1556	4
92.0029	11
95.0858	6
101.7715	4
111.0811	5
113.0962	32
122.9254	4
139.3223	5
187.0761	6
187.1123	5
201.0916	7
227.1064	6
237.1278	8
249.0763	27
253.122	25
255.1386	8
271.1328	23
271.8366	5
273.1107	6
281.1172	26
283.1323	27
289.1446	17
299.1275	51
301.1433	7
309.1115	7
317.138	38
319.1556	20
327.1216	44
329.138	20
335.1489	5
345.1335	118
347.1496	10
355.1196	11
363.1425	52
373.128	48
391.1382	39
409.1493	163
426.1758	999
427.1599	514
427.2449	7
427.5902	5
