Mass spectrum: Isorhamnetin 3-O-neohesperidoside; LC-ESI-QTOF; MS2; CE: 32.50;  [M+H]+
Name: Isorhamnetin 3-O-neohesperidoside
Class: NA
Formula: C28H32O16
Exact mass: 624.1690
SMILES: CC1C(C(C(C(O1)OC2C(C(C(OC2OC3=C(OC4=CC(=CC(=C4C3=O)O)O)C5=CC(=C(C=C5)O)OC)CO)O)O)O)O)O
InChI: InChI=1S/C28H32O16/c1-9-18(33)21(36)23(38)27(40-9)44-26-22(37)19(34)16(8-29)42-28(26)43-25-20(35)17-13(32)6-11(30)7-15(17)41-24(25)10-3-4-12(31)14(5-10)39-2/h3-7,9,16,18-19,21-23,26-34,36-38H,8H2,1-2H3
Instrument: Bruker MicrOTOF-Q
Instrument type: LC-ESI-QTOF
Ms type: MS2
Ion mode: POSITIVE
Ionization: ESI
Collision energy: 32.50
Column name: Acquity CSHC18
Retention time: NA
Base peak: 625.1763
Precursor m/z: 625.1763
Precursor type: [M+H]+
m/z	relative intensity
302.0419	12
317.0679	32
318.0699	205
319.072	999
