Mass spectrum: GlycoChenoDeoxyCholic Acid; LC-ESI-QTOF; MS2; CE: 10;  [M-H2O+H]+
Name: GlycoChenoDeoxyCholic Acid
Class: NA
Formula: C26H43NO5
Exact mass: 449.31412
SMILES: CC(CCC(=O)NCC(=O)O)C1CCC2C1(CCC3C2C(CC4C3(CCC(C4)O)C)O)C
InChI: InChI=1S/C26H43NO5/c1-15(4-7-22(30)27-14-23(31)32)18-5-6-19-24-20(9-11-26(18,19)3)25(2)10-8-17(28)12-16(25)13-21(24)29/h15-21,24,28-29H,4-14H2,1-3H3,(H,27,30)(H,31,32)
Instrument: impact II
Instrument type: LC-ESI-QTOF
Ms type: MS2
Ion mode: POSITIVE
Ionization: ESI
Collision energy: 10
Column name: Acquity CSHC18
Retention time: 1.910 min
Base peak: 432.31110
Precursor m/z: 432.31110
Precursor type: [M-H2O+H]+
m/z	relative intensity
414.2999	399
415.3033	104
432.3103	999
433.3139	368
