Mass spectrum: N-Acetyl-L-alanine; ESI-TOF; MS2; CE: 6.0000000;  [M+H]+
Name: N-Acetyl-L-alanine
Class: NA
Formula: C5H9NO3
Exact mass: 131.05824
SMILES: CC(NC(C)=O)C(O)=O
InChI: InChI=1S/C5H9NO3/c1-3(5(8)9)6-4(2)7/h3H,1-2H3,(H,6,7)(H,8,9)
Instrument: waters xevo g2 TOF
Instrument type: ESI-TOF
Ms type: MS2
Ion mode: POSITIVE
Ionization: ESI
Collision energy: 6.0000000
Column name: Acquity CSHC18
Retention time: 0.939 min
Base peak: 132.06624
Precursor m/z: 132.06624
Precursor type: [M+H]+
m/z	relative intensity
72.9377	1
90.0554	160
90.0556	200
96.9614	100
128.0021	1
128.0022	1
132.0658	172
132.0659	336
137.9877	999
138.0736	34
140.9875	1
154.0478	541
154.0479	347
158.0031	236
169.0289	21
170.0127	1
170.0133	1
182.0143	247
182.0145	207
189.9799	23
210.0552	52
210.0559	27
225.0855	292
226.0872	12
226.0876	19
227.0114	33
227.0117	53
231.9901	51
231.9912	59
287.0817	28
287.0828	44
301.0711	83
316.0347	181
316.0352	72
317.0424	37
317.0425	103
