Mass spectrum: CDP-ETHANOLAMINE; LC-ESI-QTOF; MS2; CE: 10;  [M+H]+
Name: CDP-ETHANOLAMINE
Class: NA
Formula: C11H20N4O11P2
Exact mass: 446.06038
SMILES: NCCOP(O)(=O)OP(O)(=O)OC[C@H]1O[C@H]([C@H](O)[C@@H]1O)N1C=CC(N)=NC1=O
InChI: InChI=1S/C11H20N4O11P2/c12-2-4-23-27(19,20)26-28(21,22)24-5-6-8(16)9(17)10(25-6)15-3-1-7(13)14-11(15)18/h1,3,6,8-10,16-17H,2,4-5,12H2,(H,19,20)(H,21,22)(H2,13,14,18)/t6-,8-,9-,10-/m1/s1
Instrument: Agilent 6530Â Q-TOF LC/MS
Instrument type: LC-ESI-QTOF
Ms type: MS2
Ion mode: POSITIVE
Ionization: ESI
Collision energy: 10
Column name: NA
Retention time: 0.200 min
Base peak: 447.07185
Precursor m/z: 447.07185
Precursor type: [M+H]+
Precursor intensity: 36.5
m/z	relative intensity
94.035	13
94.0406	14
94.0462	11
97.0149	23
97.0205	43
97.0262	45
97.0318	37
97.0375	28
97.0431	20
97.0488	15
97.0544	12
112.0282	70
112.0343	404
112.0404	853
112.0464	999
112.0525	880
112.0586	697
112.0646	529
112.0707	402
112.0768	302
112.0828	231
112.0889	175
112.095	131
112.101	93
112.1071	64
112.1132	48
112.1192	43
112.1253	33
112.1314	22
112.1374	16
112.1738	14
112.1799	16
112.186	13
147.0889	13
147.0959	15
147.1028	13
220.0215	24
220.03	31
220.0385	28
220.047	22
220.0555	16
220.064	12
226.0814	12
324.0153	13
324.0256	105
324.036	279
324.0463	396
324.0566	401
324.0669	343
324.0772	273
324.0876	206
324.0979	155
324.1082	119
324.1185	89
324.1288	64
324.1391	47
324.1495	35
324.1598	22
324.1701	19
324.1804	18
324.1907	15
