Mass spectrum: 16:0 Diether PC; ESI-TOF; MS2; CE: 0.6458333;  [M+H]+
Name: 16:0 Diether PC
Class: NA
Formula: C40H84NO6P
Exact mass: 705.60363
SMILES: [H]C([H])([H])C([H])([H])C([H])([H])C([H])([H])C([H])([H])C([H])([H])C([H])([H])C([H])([H])C([H])([H])C([H])([H])C([H])([H])C([H])([H])C([H])([H])C([H])([H])C([H])([H])C([H])([H])OC([H])([H])C([H])(OC([H])([H])C([H])([H])C([H])([H])C([H])([H])C([H])([H])C([H])([H])C([H])([H])C([H])([H])C([H])([H])C([H])([H])C([H])([H])C([H])([H])C([H])([H])C([H])([H])C([H])([H])C([H])([H])[H])C([H])([H])OP(=O)([O-])OC([H])([H])C([H])([H])[N+](C([H])([H])[H])(C([H])([H])[H])C([H])([H])[H]
InChI: InChI=1S/C40H84NO6P/c1-6-8-10-12-14-16-18-20-22-24-26-28-30-32-35-44-38-40(39-47-48(42,43)46-37-34-41(3,4)5)45-36-33-31-29-27-25-23-21-19-17-15-13-11-9-7-2/h40H,6-39H2,1-5H3
Instrument: waters xevo g2 TOF
Instrument type: ESI-TOF
Ms type: MS2
Ion mode: POSITIVE
Ionization: ESI
Collision energy: 0.6458333
Column name: Acquity CSHC18
Retention time: 11.648 min
Base peak: 706.61163
Precursor m/z: 706.61163
Precursor type: [M+H]+
m/z	relative intensity
71.0867	2
85.0744	3
86.0971	44
97.101	2
104.1075	66
105.1112	1
148.5336	1
162.9475	9
184.0737	37
185.0767	1
192.9571	2
231.1219	3
260.6585	2
283.2998	7
295.195	3
343.2458	12
343.7482	3
369.26	2
372.7846	33
373.2847	22
373.7863	8
398.799	9
399.3002	4
417.2077	4
437.7624	1
461.2346	2
464.3529	2
659.4692	9
660.4717	6
669.5199	46
670.523	16
671.5243	5
696.0494	31
696.5503	12
697.0512	6
697.5548	1
704.0069	3
704.5084	3
706.7874	717
707.6145	999
