Mass spectrum: XANTHINE; LC-ESI-QTOF; MS2; CE: 20;  [M-H]-
Name: XANTHINE
Class: NA
Formula: C5H4N4O2
Exact mass: 152.03343
SMILES: O=C1NC2=C(NC=N2)C(=O)N1
InChI: InChI=1S/C5H4N4O2/c10-4-2-3(7-1-6-2)8-5(11)9-4/h1H,(H3,6,7,8,9,10,11)
Instrument: Agilent 6530Â Q-TOF LC/MS
Instrument type: LC-ESI-QTOF
Ms type: MS2
Ion mode: NEGATIVE
Ionization: ESI
Collision energy: 20
Column name: NA
Retention time: 0.200 min
Base peak: 151.02568
Precursor m/z: 151.02568
Precursor type: [M-H]-
Precursor intensity: 194
m/z	relative intensity
42.01	214
66.0073	374
80.0277	431
108.037	990
151.0395	999
