Mass spectrum: Dihydroorotic acid; LC-ESI-QTOF; MS2; CE: 30;  [M-H]-
Name: Dihydroorotic acid
Class: Alpha amino acids and derivatives
Formula: C5H6N2O4
Exact mass: 158.0328
SMILES: OC(=O)[C@@H]1CC(=O)NC(=O)N1
InChI: InChI=1S/C5H6N2O4/c8-3-1-2(4(9)10)6-5(11)7-3/h2H,1H2,(H,9,10)(H2,6,7,8,11)/t2-/m0/s1
Instrument: impact II
Instrument type: LC-ESI-QTOF
Ms type: MS2
Ion mode: NEGATIVE
Ionization: ESI
Collision energy: 30
Column name: Acquity CSHC18
Retention time: 1.691 min
Base peak: 157.0256
Precursor m/z: 157.0256
Precursor type: [M-H]-
m/z	relative intensity
70.0298	366
113.0357	999
