Mass spectrum: 7-methylthioheptyl glucosinolate; LC-ESI-QTOF; MS2; CE: 27.16;  [M-H]-
Name: 7-methylthioheptyl glucosinolate
Class: NA
Formula: C15H29NO9S3
Exact mass: 463.1004
SMILES: CSCCCCCCCC(=NOS(=O)(=O)O)SC1C(C(C(C(O1)CO)O)O)O
InChI: InChI=1S/C15H29NO9S3/c1-26-8-6-4-2-3-5-7-11(16-25-28(21,22)23)27-15-14(20)13(19)12(18)10(9-17)24-15/h10,12-15,17-20H,2-9H2,1H3,(H,21,22,23)
Instrument: Bruker MicrOTOF-Q
Instrument type: LC-ESI-QTOF
Ms type: MS2
Ion mode: NEGATIVE
Ionization: ESI
Collision energy: 27.16
Column name: Acquity CSHC18
Retention time: NA
Base peak: 462.0932
Precursor m/z: 462.0932
Precursor type: [M-H]-
m/z	relative intensity
45.3212	3
46.5894	3
48.1572	2
48.6605	1
49.362	3
50.6042	3
52.4256	2
53.251	2
56.2486	3
57.0331	3
58.1356	1
59.0954	3
60.7304	3
62.2565	2
63.0564	3
65.0674	3
66.6869	3
67.1573	3
68.624	3
70.0303	3
70.7222	2
71.2255	1
71.7134	4
72.2257	5
73.1785	4
73.7678	2
74.1791	3
75.7212	2
76.2192	2
76.8382	2
78.5654	2
80.2379	8
81.1131	2
83.0977	3
84.2029	3
85.4185	4
86.7782	2
87.5682	3
88.0247	2
89.1292	1
90.5842	3
93.2585	1
94.894	2
97.4092	347
99.9205	3
101.0207	12
110.9923	3
111.9316	42
113.0546	10
113.9212	10
117.021	9
119.0402	7
121.0312	1
122.5649	2
127.9234	178
128.9323	71
129.4054	2
129.9227	17
130.9782	7
133.5657	2
134.0289	3
135.0438	26
137.0284	2
138.0323	1
138.9697	231
140.9675	7
143.0323	7
145.0499	26
153.1283	7
154.9521	1
159.0224	4
163.0617	26
168.9792	37
170.9637	4
176.2211	2
193.0484	2
195.0322	77
197.0204	4
198.9926	61
199.994	4
200.9872	11
202.0757	5
204.0946	28
204.942	169
206.0763	64
207.0671	34
219.0733	6
219.9696	300
221.0843	119
222.0808	88
223.0768	3
227.0242	30
228.0308	1
229.2572	2
239.0413	167
240.0381	13
240.9472	99
242.0052	20
242.9991	10
244.0826	8
250.0431	4
257.0579	16
259.3735	264
261.0117	93
262.0562	6
266.0523	47
267.055	1
269.0334	441
270.0348	43
271.0272	56
272.0309	4
274.9893	999
275.8071	55
276.9188	41
278.9791	4
284.0637	39
285.057	5
290.9859	7
299.0902	5
382.1383	8
462.0901	145
463.0929	34
464.0908	25
