Mass spectrum: Tifruticin, desoxy-3-dehydro-15-hydroxy; LC-ESI-ITFT; MS2; CE: 50eV;  [M+H]+
Name: Tifruticin, desoxy-3-dehydro-15-hydroxy
Class: Sesquiterpenelactone; Heliangolide
Formula: C20H24O7
Exact mass: 376.1522
SMILES: CC(=C(C)C(=O)OC1(CC(C)(C(=C(C(C(=C(C2(C1(C(=C)C(=O)O2)[H])[H])[H])CO)=O)[H])[H])O)[H])[H]
InChI: InChI=1S/C20H24O7/c1-5-11(2)18(23)27-16-9-20(4,25)7-6-14(22)13(10-21)8-15-17(16)12(3)19(24)26-15/h5-8,15-17,21,25H,3,9-10H2,1-2,4H3
Instrument: Q Exactive Plus, ThermoFisher Scientific
Instrument type: LC-ESI-ITFT
Ms type: MS2
Ion mode: POSITIVE
Ionization: ESI
Collision energy: 50eV
Column name: Acquity CSHC18
Retention time: 6.764 min
Base peak: 377.1598
Precursor m/z: 377.1598
Precursor type: [M+H]+
Precursor intensity: 29076200
m/z	relative intensity
55.0555	379
68.7222	43
68.7265	14
83.0498	999
84.0537	9
93.925	7
97.4724	11
101.0615	8
105.0708	8
117.0703	14
131.0855	15
142.0774	8
143.0863	51
145.0647	16
155.0859	12
157.102	39
159.0813	51
159.1177	8
161.0599	10
161.0967	12
165.0546	12
167.0864	51
169.1016	11
171.0815	80
173.0595	11
175.0765	10
183.0814	9
185.0969	213
187.0764	28
189.0922	35
195.0807	33
199.0768	33
201.0548	8
203.1064	15
205.0865	9
213.0906	217
215.0723	8
217.0878	48
231.1009	130
241.0848	72
249.7262	7
259.0961	124
277.1071	12
377.1558	43
