Mass spectrum: 3alpha-Amino-5alpha-solanidan; APCI-ITFT; MS2; CE: 35 CID;  [M+H]+
Name: 3alpha-Amino-5alpha-solanidan
Class: NA
Formula: C27H46N2
Exact mass: 398.36610
SMILES: N[C@@H]1CC[C@@]2(C)[C@](CC[C@]3([H])[C@]2([H])CC[C@@]4(C)[C@@]3([H])C[C@@]5([H])[C@]4([H])[C@H](C)[C@]6([H])N5C[C@@H](C)CC6)([H])C1
InChI: InChI=1S/C27H46N2/c1-16-5-8-23-17(2)25-24(29(23)15-16)14-22-20-7-6-18-13-19(28)9-11-26(18,3)21(20)10-12-27(22,25)4/h16-25H,5-15,28H2,1-4H3/t16-,17+,18-,19+,20+,21-,22-,23+,24-,25-,26-,27-/m0/s1
Instrument: Orbitrap Elite
Instrument type: APCI-ITFT
Ms type: MS2
Ion mode: POSITIVE
Ionization: APCI
Collision energy: 35 CID
Column name: Acquity CSHC18
Retention time: 0.069 min
Base peak: 399.37240
Precursor m/z: 399.37240
Precursor type: [M+H]+
Precursor intensity: 822024200
m/z	relative intensity
121.1018	2
126.1279	7
128.6432	1
131.0862	3
131.306	1
133.1015	2
135.1166	1
144.3445	1
145.101	4
147.1171	11
157.1015	1
159.116	7
161.1319	6
163.9414	1
171.1172	2
173.1334	7
175.1484	2
185.1324	2
187.1481	2
199.1493	2
205.3456	2
213.1659	3
227.1793	2
253.1956	2
255.2114	25
262.2754	1
272.2403	2
287.537	1
287.562	1
372.9178	1
382.3466	63
383.3508	4
398.338	51
399.311	31
399.3742	999
