Mass spectrum: L-Glutamine; LC-ESI-ITFT; MS2; CE: 40;  [M-H]-
Name: L-Glutamine
Class: Organic acids and derivatives; Carboxylic acids and derivatives; Amino acids, peptides, and analogues
Formula: C5H10N2O3
Exact mass: 146.06914
SMILES: N[C@@H](CCC(N)=O)C(O)=O
InChI: InChI=1S/C5H10N2O3/c6-3(5(9)10)1-2-4(7)8/h3H,1-2,6H2,(H2,7,8)(H,9,10)/t3-/m0/s1
Instrument: Thermo Scientific Q-Exactive Focus
Instrument type: LC-ESI-ITFT
Ms type: MS2
Ion mode: NEGATIVE
Ionization: ESI
Collision energy: 40
Column name: Acquity CSHC18
Retention time: NA
Base peak: 145.06187
Precursor m/z: 145.06187
Precursor type: [M-H]-
m/z	relative intensity
58.0286	999
64.1408	567
84.0807	561
85.4605	561
98.7499	548
125.0481	625
133.3013	607
138.4332	573
141.4515	662
143.2526	566
