Mass spectrum: Dopamine; LC-ESI-ITFT; MS2; CE: 100;  [M+H]+
Name: Dopamine
Class: Benzenoids; Phenols; Benzenediols
Formula: C8H11NO2
Exact mass: 153.07898
SMILES: NCCC1=CC(O)=C(O)C=C1
InChI: InChI=1S/C8H11NO2/c9-4-3-6-1-2-7(10)8(11)5-6/h1-2,5,10-11H,3-4,9H2
Instrument: Thermo Scientific Q-Exactive Focus
Instrument type: LC-ESI-ITFT
Ms type: MS2
Ion mode: POSITIVE
Ionization: ESI
Collision energy: 100
Column name: Acquity CSHC18
Retention time: 2.305 min
Base peak: 154.08626
Precursor m/z: 154.08626
Precursor type: [M+H]+
m/z	relative intensity
50.0157	575
51.0235	87
53.0028	999
60.2619	42
61.0078	268
62.0156	631
63.0235	338
92.5227	92
93.9909	52
143.8648	43
