Mass spectrum: 3,4,5-Trihydroxystilbene-3-beta-monoglucoside; LC-ESI-QTOF; MS2; CE: 21.84;  [M+H]+
Name: 3,4,5-Trihydroxystilbene-3-beta-monoglucoside
Class: NA
Formula: C20H22O8
Exact mass: 390.1315
SMILES: C1=CC(=CC=C1C=CC2=CC(=CC(=C2)OC3C(C(C(C(O3)CO)O)O)O)O)O
InChI: InChI=1S/C20H22O8/c21-10-16-17(24)18(25)19(26)20(28-16)27-15-8-12(7-14(23)9-15)2-1-11-3-5-13(22)6-4-11/h1-9,16-26H,10H2
Instrument: Bruker MicrOTOF-Q
Instrument type: LC-ESI-QTOF
Ms type: MS2
Ion mode: POSITIVE
Ionization: ESI
Collision energy: 21.84
Column name: Acquity CSHC18
Retention time: NA
Base peak: 391.1387
Precursor m/z: 391.1387
Precursor type: [M+H]+
m/z	relative intensity
135.0449	13
165.0698	14
183.0808	17
193.0663	21
211.0756	48
228.079	71
229.0866	72
230.09	81
231.092	142
241.0854	999
