Mass spectrum: 3,4-dimethoxycinnamic acid; LC-ESI-QTOF; MS2; CE: 15.00;  [M-H2O+H]+
Name: 3,4-dimethoxycinnamic acid
Class: NA
Formula: C11H12O4
Exact mass: 208.0736
SMILES: COC1=C(C=C(C=C1)C=CC(=O)O)OC
InChI: InChI=1S/C11H12O4/c1-14-9-5-3-8(4-6-11(12)13)7-10(9)15-2/h3-7H,1-2H3,(H,12,13)
Instrument: Bruker MicrOTOF-Q
Instrument type: LC-ESI-QTOF
Ms type: MS2
Ion mode: POSITIVE
Ionization: ESI
Collision energy: 15.00
Column name: Acquity CSHC18
Retention time: NA
Base peak: 191.0703
Precursor m/z: 191.0703
Precursor type: [M-H2O+H]+
m/z	relative intensity
132.0539	16
139.072	23
148.0493	38
160.0497	39
163.0746	42
164.077	64
167.0699	79
176.0457	102
191.0696	373
192.0728	999
