Mass spectrum: Folic acid; LC-ESI-ITFT; MS2; CE: 40;  [M-H]-
Name: Folic acid
Class: Organic acids and derivatives; Carboxylic acids and derivatives; Amino acids, peptides, and analogues
Formula: C19H19N7O6
Exact mass: 441.13968
SMILES: NC1=NC(=O)C2=NC(CNC3=CC=C(C=C3)C(=O)N[C@@H](CCC(O)=O)C(O)=O)=CN=C2N1
InChI: InChI=1S/C19H19N7O6/c20-19-25-15-14(17(30)26-19)23-11(8-22-15)7-21-10-3-1-9(2-4-10)16(29)24-12(18(31)32)5-6-13(27)28/h1-4,8,12,21H,5-7H2,(H,24,29)(H,27,28)(H,31,32)(H3,20,22,25,26,30)/t12-/m0/s1
Instrument: Thermo Scientific Q-Exactive Focus
Instrument type: LC-ESI-ITFT
Ms type: MS2
Ion mode: NEGATIVE
Ionization: ESI
Collision energy: 40
Column name: Acquity CSHC18
Retention time: 1.479 min
Base peak: 440.13239
Precursor m/z: 440.13239
Precursor type: [M-H]-
m/z	relative intensity
128.0342	142
132.0431	455
135.0553	114
136.0393	108
162.0412	94
175.0491	999
177.1025	144
207.0392	95
221.0926	156
311.0897	193
