Mass spectrum: 5-HYDROXYINDOLEACETATE; LC-ESI-QFT; MS2; CE: 30eV;  [M-H]-
Name: 5-HYDROXYINDOLEACETATE
Class: NA
Formula: C10H9NO3
Exact mass: 191.05824
SMILES: OC(=O)CC1=CNC2=CC=C(O)C=C12
InChI: InChI=1S/C10H9NO3/c12-7-1-2-9-8(4-7)6(5-11-9)3-10(13)14/h1-2,4-5,11-12H,3H2,(H,13,14)
Instrument: Q-Exactive Orbitrap, Thermo Scientfic; Ultimate 3000 HPLC, Thermo Scientfic
Instrument type: LC-ESI-QFT
Ms type: MS2
Ion mode: NEGATIVE
Ionization: ESI
Collision energy: 30eV
Column name: Acquity CSHC18
Retention time: 4.132 min
Base peak: 190.0510
Precursor m/z: 190.0510
Precursor type: [M-H]-
Precursor intensity: 132
m/z	relative intensity
51.8083	7
56.9246	7
57.3069	7
57.323	6
57.8463	6
58.375	7
58.9574	56
59.6363	6
67.4361	8
68.774	7
71.2085	6
88.6676	7
98.5664	8
100.9317	12
101.9505	32
102.9474	856
127.8689	150
143.8639	142
144.0443	396
145.0476	18
145.898	18
145.9407	8
146.0599	999
146.8975	49
146.9375	157
147.0634	70
154.5274	8
160.0393	62
161.8749	45
161.8929	15
162.8926	50
183.1834	9
185.4495	9
190.0507	15
