Mass spectrum: NADH; LC-ESI-QTOF; MS2; CE: 60;  [M-H]-
Name: NADH
Class: NA
Formula: C21H29N7O14P2
Exact mass: 665.12477
SMILES: C1C=CN(C=C1C(=O)N)C2C(C(C(O2)COP(=O)(O)OP(=O)(O)OCC3C(C(C(O3)N4C=NC5=C(N=CN=C54)N)O)O)O)O
InChI: InChI=1S/C21H29N7O14P2/c22-17-12-19(25-7-24-17)28(8-26-12)21-16(32)14(30)11(41-21)6-39-44(36,37)42-43(34,35)38-5-10-13(29)15(31)20(40-10)27-3-1-2-9(4-27)18(23)33/h1,3-4,7-8,10-11,13-16,20-21,29-32H,2,5-6H2,(H2,23,33)(H,34,35)(H,36,37)(H2,22,24,25)
Instrument: impact II
Instrument type: LC-ESI-QTOF
Ms type: MS2
Ion mode: NEGATIVE
Ionization: ESI
Collision energy: 60
Column name: Acquity CSHC18
Retention time: 1.906 min
Base peak: 664.11740
Precursor m/z: 664.11740
Precursor type: [M-H]-
m/z	relative intensity
78.959	999
96.9697	157
134.0472	138
158.9255	371
272.9572	190
