Mass spectrum: DL-2-Aminooctanoic acid; ESI-TOF; MS2; CE: 6.0000000;  [M+H]+
Name: DL-2-Aminooctanoic acid
Class: NA
Formula: C8H17NO2
Exact mass: 159.12593
SMILES: CCCCCCC(N)C(O)=O
InChI: InChI=1S/C8H17NO2/c1-2-3-4-5-6-7(9)8(10)11/h7H,2-6,9H2,1H3,(H,10,11)
Instrument: waters xevo g2 TOF
Instrument type: ESI-TOF
Ms type: MS2
Ion mode: POSITIVE
Ionization: ESI
Collision energy: 6.0000000
Column name: Acquity CSHC18
Retention time: 2.189 min
Base peak: 160.13393
Precursor m/z: 160.13393
Precursor type: [M+H]+
m/z	relative intensity
55.0555	1
69.0708	6
97.1019	91
98.1054	6
114.2202	969
115.0034	161
116.1347	12
128.9866	5
137.9823	30
160.1339	999
161.137	107
