Mass spectrum: Malonyl-CoA; LC-ESI-QTOF; MS2; CE: 100;  [M+H]+
Name: Malonyl-CoA
Class: Acyl CoAs
Formula: C24H38N7O19P3S
Exact mass: 853.11560
SMILES: CC(C)(COP(O)(=O)OP(O)(=O)OC[C@H]1O[C@H]([C@H](O)[C@@H]1OP(O)(O)=O)N1C=NC2=C1N=CN=C2N)[C@@H](O)C(=O)NCCC(=O)NCCSC(=O)CC(O)=O
InChI: InChI=1S/C24H38N7O19P3S/c1-24(2,19(37)22(38)27-4-3-13(32)26-5-6-54-15(35)7-14(33)34)9-47-53(44,45)50-52(42,43)46-8-12-18(49-51(39,40)41)17(36)23(48-12)31-11-30-16-20(25)28-10-29-21(16)31/h10-12,17-19,23,36-37H,3-9H2,1-2H3,(H,26,32)(H,27,38)(H,33,34)(H,42,43)(H,44,45)(H2,25,28,29)(H2,39,40,41)/t12-,17-,18-,19+,23-/m1/s1
Instrument: impact II
Instrument type: LC-ESI-QTOF
Ms type: MS2
Ion mode: POSITIVE
Ionization: ESI
Collision energy: 100
Column name: Acquity CSHC18
Retention time: 1.670 min
Base peak: 854.12400
Precursor m/z: 854.12400
Precursor type: [M+H]+
m/z	relative intensity
61.0114	112
72.045	119
88.0217	127
99.0552	138
103.0213	145
113.0594	146
124.0753	166
132.0475	212
136.0615	370
142.086	430
147.0107	484
159.0583	594
175.0531	999
