Mass spectrum: L-Fucose; ESI-TOF; MS2; CE: 6.0000000;  [M+H]+
Name: L-Fucose
Class: NA
Formula: C6H12O5
Exact mass: 164.06847
SMILES: CC1OC(O)C(O)C(O)C1O
InChI: InChI=1S/C6H12O5/c1-2-3(7)4(8)5(9)6(10)11-2/h2-10H,1H3
Instrument: waters xevo g2 TOF
Instrument type: ESI-TOF
Ms type: MS2
Ion mode: POSITIVE
Ionization: ESI
Collision energy: 6.0000000
Column name: Acquity CSHC18
Retention time: 0.581 min
Base peak: 165.07647
Precursor m/z: 165.07647
Precursor type: [M+H]+
m/z	relative intensity
97.969	2
113.9643	160
126.9474	2
137.9876	609
143.9594	32
144.9592	2
152.0013	26
154.968	49
187.0577	999
188.0607	48
199.9767	228
217.9886	44
242.0103	24
245.9839	48
259.9972	63
265.0013	49
278.0095	258
292.0246	49
317.0825	23
346.0372	58
351.127	231
