Mass spectrum: Glucoraphanin; LC-ESI-QTOF; MS2; CE: 25.2;  [M-H]-
Name: Glucoraphanin
Class: NA
Formula: C12H23NO10S3
Exact mass: 437.0484
SMILES: CS(=O)CCCCC(=NOS(=O)(=O)O)SC1C(C(C(C(O1)CO)O)O)O
InChI: InChI=1S/C12H23NO10S3/c1-25(18)5-3-2-4-8(13-23-26(19,20)21)24-12-11(17)10(16)9(15)7(6-14)22-12/h7,9-12,14-17H,2-6H2,1H3,(H,19,20,21)
Instrument: Bruker MicrOTOF-Q
Instrument type: LC-ESI-QTOF
Ms type: MS2
Ion mode: NEGATIVE
Ionization: ESI
Collision energy: 25.2
Column name: Acquity CSHC18
Retention time: NA
Base peak: 436.0411
Precursor m/z: 436.0411
Precursor type: [M-H]-
m/z	relative intensity
79.953	7
95.9521	814
96.9599	999
97.9509	47
98.9577	60
111.933	6
127.9249	19
128.9307	13
130.0335	61
138.9709	46
145.0498	8
146.0273	15
163.0581	5
168.9794	5
176.0013	5
177.0121	9
178.0182	863
179.0167	78
180.0156	42
194.0304	79
195.033	35
196.0252	14
198.9933	8
209.9889	39
224.9765	17
225.9834	84
227.0194	14
227.976	9
239.9971	5
241.0036	21
242.9832	59
243.9848	6
244.9765	7
259.0128	248
260.0158	17
261.0114	17
274.9896	134
275.9939	8
276.9861	16
292.0876	5
372.0429	161
373.0448	20
374.0404	19
421.0168	62
422.0154	13
423.0096	9
436.0407	19
