Mass spectrum: myo-Inositol; LC-ESI-ITFT; MS2; CE: 40;  [M-H]-
Name: myo-Inositol
Class: Organic oxygen compounds; Organooxygen compounds; Alcohols and polyols
Formula: C6H12O6
Exact mass: 180.06339
SMILES: O[C@H]1[C@H](O)[C@@H](O)[C@H](O)[C@H](O)[C@@H]1O
InChI: InChI=1S/C6H12O6/c7-1-2(8)4(10)6(12)5(11)3(1)9/h1-12H/t1-,2-,3-,4+,5-,6-
Instrument: Thermo Scientific Q-Exactive Focus
Instrument type: LC-ESI-ITFT
Ms type: MS2
Ion mode: NEGATIVE
Ionization: ESI
Collision energy: 40
Column name: Acquity CSHC18
Retention time: 1.475 min
Base peak: 179.05611
Precursor m/z: 179.05611
Precursor type: [M-H]-
m/z	relative intensity
55.0178	416
59.0127	786
69.0334	132
71.0127	783
72.9919	138
85.0284	131
87.0076	999
94.9631	84
94.9919	113
99.0076	84
