Mass spectrum: Dihydroxyacetone; ESI-TOF; MS2; CE: 6.0000000;  [M+H]+
Name: Dihydroxyacetone
Class: NA
Formula: C3H6O3
Exact mass: 90.03169
SMILES: OCC(=O)CO
InChI: InChI=1S/C3H6O3/c4-1-3(6)2-5/h4-5H,1-2H2
Instrument: waters xevo g2 TOF
Instrument type: ESI-TOF
Ms type: MS2
Ion mode: POSITIVE
Ionization: ESI
Collision energy: 6.0000000
Column name: Acquity CSHC18
Retention time: 0.569 min
Base peak: 91.03969
Precursor m/z: 91.03969
Precursor type: [M+H]+
m/z	relative intensity
96.9615	77
99.0108	20
109.0299	5
109.9797	14
113.9644	148
115.0148	6
119.0194	16
123.0037	1
127.0008	30
127.9571	29
130.3446	4
131.0147	12
131.9517	18
140.0699	4
143.0209	5
143.9603	31
144.9858	20
145.9948	30
147.0925	1
148.9757	5
150.972	4
152.9722	5
154.9673	57
155.9744	52
159.9465	6
161.0417	5
162.9933	3
171.9668	14
173.0804	3
173.9619	254
174.9691	136
175.9776	11
176.9704	22
178.1241	12
178.9675	5
182.0335	2
185.0433	4
185.962	7
194.119	3
199.0594	3
200.0124	2
201.9773	64
203.0536	54
203.9729	999
204.9758	85
205.9767	9
208.9754	4
217.1051	9
220.0035	30
221.0061	2
233.9825	10
245.066	1
257.9832	15
259.0691	3
274.9868	213
276.0354	32
277.0809	7
291.0503	6
293.0805	2
302.1957	8
303.0685	8
305.0856	18
307.1056	1
308.0231	2
333.0806	13
347.0958	25
348.1015	2
354.0307	2
366.0239	3
377.1049	4
397.3055	2
437.1263	11
