Mass spectrum: Glycerol; LC-ESI-ITFT; MS2; CE: 30;  [M-H]-
Name: Glycerol
Class: Organic oxygen compounds; Organooxygen compounds; Carbohydrates and carbohydrate conjugates
Formula: C3H8O3
Exact mass: 92.04734
SMILES: OCC(O)CO
InChI: InChI=1S/C3H8O3/c4-1-3(6)2-5/h3-6H,1-2H2
Instrument: Thermo Scientific Q-Exactive Focus
Instrument type: LC-ESI-ITFT
Ms type: MS2
Ion mode: NEGATIVE
Ionization: ESI
Collision energy: 30
Column name: Acquity CSHC18
Retention time: NA
Base peak: 91.04007
Precursor m/z: 91.04007
Precursor type: [M-H]-
m/z	relative intensity
52.6022	438
70.2765	456
87.861	443
92.5137	973
92.5152	999
95.0033	494
96.155	485
96.1566	504
106.1848	512
106.3066	437
