Mass spectrum: D-MANNOSAMINE; LC-ESI-QTOF; MS2; CE: 10;  [M+H]+
Name: D-MANNOSAMINE
Class: NA
Formula: C6H13NO5
Exact mass: 179.0794
SMILES: C(C1C(C(C(C(O1)O)N)O)O)O
InChI: InChI=1S/C6H13NO5/c7-3-5(10)4(9)2(1-8)12-6(3)11/h2-6,8-11H,1,7H2
Instrument: Agilent 6530Â Q-TOF LC/MS
Instrument type: LC-ESI-QTOF
Ms type: MS2
Ion mode: POSITIVE
Ionization: ESI
Collision energy: 10
Column name: NA
Retention time: 0.200 min
Base peak: 180.08654
Precursor m/z: 180.08654
Precursor type: [M+H]+
Precursor intensity: 130.5
m/z	relative intensity
45.0341	483
60.0456	199
162.0765	999
162.1293	288
