Mass spectrum: Hörhammericine; ESI-QTOF; MS2; CE: 30 eV;  [M+H]+
Name: Hörhammericine
Class: NA
Formula: C21H24N2O4
Exact mass: 368.1736
SMILES: CC(C12CC(=C3C4(CCN(CC5(C1(O5)[H])[H])C42[H])C6=CC=CC=C6N3)C(=O)OC)(O)[H]
InChI: InChI=1S/C21H24N2O4/c1-11(24)21-9-12(18(25)26-2)16-20(13-5-3-4-6-14(13)22-16)7-8-23(19(20)21)10-15-17(21)27-15/h3-6,11,15,17,19,22,24H,7-10H2,1-2H3
Instrument: Synapt (HDMS 1st gen)
Instrument type: ESI-QTOF
Ms type: MS2
Ion mode: POSITIVE
Ionization: ESI
Collision energy: 30 eV
Column name: Acquity CSHC18
Retention time: 6.650 min
Base peak: 369.1826
Precursor m/z: 369.1826
Precursor type: [M+H]+
Precursor intensity: 5869.24
m/z	relative intensity
167.0732	31
168.0792	33
169.0854	38
196.0763	44
197.0817	47
228.1011	48
229.1078	56
230.1163	59
247.1262	106
307.1489	124
325.16	147
337.1571	203
338.1626	332
351.1726	594
352.1765	868
369.176	999
