Mass spectrum: 6-alpha-methylprednisolone; APCI-ITFT; MS2; CE: HCD 90;  [M-H]-
Name: 6-alpha-methylprednisolone
Class: NA
Formula: C22H30O5
Exact mass: 374.20932
SMILES: CC1CC2C3CCC(C3(CC(C2C4(C1=CC(=O)C=C4)C)O)C)(C(=O)CO)O
InChI: InChI=1S/C22H30O5/c1-12-8-14-15-5-7-22(27,18(26)11-23)21(15,3)10-17(25)19(14)20(2)6-4-13(24)9-16(12)20/h4,6,9,12,14-15,17,19,23,25,27H,5,7-8,10-11H2,1-3H3
Instrument: Orbitrap Elite
Instrument type: APCI-ITFT
Ms type: MS2
Ion mode: NEGATIVE
Ionization: APCI
Collision energy: HCD 90
Column name: Acquity CSHC18
Retention time: 0.074 min
Base peak: 373.20190
Precursor m/z: 373.20190
Precursor type: [M-H]-
Precursor intensity: 1712319
m/z	relative intensity
83.0506	45
125.0606	147
135.0452	26
173.0971	79
201.0921	74
201.1286	39
215.107	39
229.1591	27
237.1275	33
239.1442	106
251.143	22
257.1545	122
269.1549	23
295.1702	48
299.1648	125
309.149	219
311.1653	32
313.1802	58
325.1806	999
327.1587	52
337.1813	50
339.1616	25
343.1904	634
354.1842	45
355.1901	41
372.1931	30
373.2023	151
