Mass spectrum: Phosphoserine; LC-ESI-QTOF; MS2; CE: 15 / 50;  [M+H]+
Name: Phosphoserine
Class: NA
Formula: C3H8NO6P
Exact mass: 185.00892
SMILES: C(C(C(=O)O)N)OP(=O)(O)O
InChI: InChI=1S/C3H8NO6P/c4-2(3(5)6)1-10-11(7,8)9/h2H,1,4H2,(H,5,6)(H2,7,8,9)
Instrument: impact II
Instrument type: LC-ESI-QTOF
Ms type: MS2
Ion mode: POSITIVE
Ionization: ESI
Collision energy: 15 / 50
Column name: Acquity CSHC18
Retention time: 0.580 min
Base peak: 186.01620
Precursor m/z: 186.01620
Precursor type: [M+H]+
m/z	relative intensity
45.0455	4
60.0446	16
70.0294	38
80.974	11
88.0395	999
88.0508	51
88.0817	5
88.0985	5
88.1067	5
88.1141	8
88.1282	5
89.0426	29
90.0437	6
98.984	67
116.995	4
139.1225	4
140.0111	10
141.0124	4
160.1085	4
184.0737	8
186.0159	50
186.0335	6
186.0767	6
186.1275	4
186.146	4
186.187	4
186.2208	12
188.1416	7
