Mass spectrum: P-HYDROXYPHENYLACETATE; LC-ESI-QTOF; MS2; CE: 20;  [M-H]-
Name: P-HYDROXYPHENYLACETATE
Class: NA
Formula: C8H8O3
Exact mass: 152.04734
SMILES: OC(=O)CC1=CC=C(O)C=C1
InChI: InChI=1S/C8H8O3/c9-7-3-1-6(2-4-7)5-8(10)11/h1-4,9H,5H2,(H,10,11)
Instrument: Agilent 6530Â Q-TOF LC/MS
Instrument type: LC-ESI-QTOF
Ms type: MS2
Ion mode: NEGATIVE
Ionization: ESI
Collision energy: 20
Column name: NA
Retention time: 0.200 min
Base peak: 151.04366
Precursor m/z: 151.04366
Precursor type: [M-H]-
Precursor intensity: 115
m/z	relative intensity
51.0236	564
79.0621	850
107.0537	999
