Mass spectrum: Barbituric acid; LC-ESI-ITFT; MS2; CE: 10;  [M-H]-
Name: Barbituric acid
Class: Organoheterocyclic compounds; Diazines; Pyrimidines and pyrimidine derivatives
Formula: C4H4N2O3
Exact mass: 128.02219
SMILES: OC1=NC(=O)N=C(O)C1
InChI: InChI=1S/C4H4N2O3/c7-2-1-3(8)6-4(9)5-2/h1H2,(H2,5,6,7,8,9)
Instrument: Thermo Scientific Q-Exactive Focus
Instrument type: LC-ESI-ITFT
Ms type: MS2
Ion mode: NEGATIVE
Ionization: ESI
Collision energy: 10
Column name: Acquity CSHC18
Retention time: 0.364 min
Base peak: 127.01492
Precursor m/z: 127.01492
Precursor type: [M-H]-
m/z	relative intensity
59.0239	19
70.6957	1
78.0064	2
80.032	2
84.0079	72
88.352	2
104.222	2
126.9039	7
126.9513	2
127.0138	999
