Mass spectrum: OPHTHALMATE; LC-ESI-QTOF; MS2; CE: 10;  [M+H]+
Name: OPHTHALMATE
Class: NA
Formula: C11H19N3O6
Exact mass: 289.12739
SMILES: CC[C@H](NC(=O)CC[C@H](N)C(O)=O)C(=O)NCC(O)=O
InChI: InChI=1S/C11H19N3O6/c1-2-7(10(18)13-5-9(16)17)14-8(15)4-3-6(12)11(19)20/h6-7H,2-5,12H2,1H3,(H,13,18)(H,14,15)(H,16,17)(H,19,20)/t6-,7-/m0/s1
Instrument: Agilent 6530Â Q-TOF LC/MS
Instrument type: LC-ESI-QTOF
Ms type: MS2
Ion mode: POSITIVE
Ionization: ESI
Collision energy: 10
Column name: NA
Retention time: 0.200 min
Base peak: 290.13020
Precursor m/z: 290.13020
Precursor type: [M+H]+
Precursor intensity: 188.5
m/z	relative intensity
41.0392	31
56.0518	32
58.2844	32
58.7282	33
84.0597	33
123.1033	34
124.0781	36
130.0665	41
142.0601	46
161.285	50
161.7938	54
161.9178	66
162.0892	72
169.1099	72
170.0914	72
187.109	83
197.1171	151
209.0937	201
215.1535	210
215.4183	216
216.1086	219
227.1352	647
272.1383	677
273.1367	777
290.1978	999
