Mass spectrum: 16,16-dimethyl Prostaglandin A2; ESI-TOF; MS2; CE: 6.0000000;  [M+H]+
Name: 16,16-dimethyl Prostaglandin A2
Class: NA
Formula: C22H34O4
Exact mass: 362.24571
SMILES: O=C1[C@H](C/C=C\CCCC(O)=O)[C@@H](/C=C/[C@@H](O)C(C)(C)CCCC)C=C1
InChI: InChI=1S/C22H34O4/c1-4-5-16-22(2,3)20(24)15-13-17-12-14-19(23)18(17)10-8-6-7-9-11-21(25)26/h6,8,12-15,17-18,20,24H,4-5,7,9-11,16H2,1-3H3,(H,25,26)/b8-6-,15-13+/t17-,18-,20-/m1/s1
Instrument: waters xevo g2 TOF
Instrument type: ESI-TOF
Ms type: MS2
Ion mode: POSITIVE
Ionization: ESI
Collision energy: 6.0000000
Column name: Acquity CSHC18
Retention time: 4.380 min
Base peak: 363.25371
Precursor m/z: 363.25371
Precursor type: [M+H]+
m/z	relative intensity
69.0696	1
95.0854	7
109.0657	1
111.0812	1
121.0647	1
123.0811	1
135.0813	1
137.133	32
145.0663	1
151.0735	1
154.0772	1
159.0812	1
160.0848	1
166.0645	15
168.0963	1
169.1581	14
173.0972	1
179.0843	1
186.1043	1
187.1119	1
191.1071	17
192.0975	6
197.1123	5
201.1264	7
203.1074	9
207.1168	1
212.6132	12
215.1077	22
219.1752	1
225.1234	1
229.1426	62
231.1723	1
243.1746	103
244.1769	7
247.0986	17
249.1743	5
262.0295	1
267.1917	1
271.0682	1
281.2294	1
301.1781	11
309.2203	87
313.1108	86
327.1836	802
328.2355	415
329.2371	70
345.2416	999
347.2507	53
351.2517	1
363.2521	27
364.2157	348
364.7171	173
365.2187	40
