Mass spectrum: Methyl heptadecanoate; LC-ESI-ITFT; MS2; CE: 60;  [M+H]+
Name: Methyl heptadecanoate
Class: NA
Formula: C18H36O2
Exact mass: 284.27153
SMILES: CCCCCCCCCCCCCCCCC(=O)OC
InChI: InChI=1S/C18H36O2/c1-3-4-5-6-7-8-9-10-11-12-13-14-15-16-17-18(19)20-2/h3-17H2,1-2H3
Instrument: Thermo Scientific Q-Exactive Focus
Instrument type: LC-ESI-ITFT
Ms type: MS2
Ion mode: POSITIVE
Ionization: ESI
Collision energy: 60
Column name: Acquity CSHC18
Retention time: 2.015 min
Base peak: 285.27881
Precursor m/z: 285.27881
Precursor type: [M+H]+
m/z	relative intensity
53.0028	376
55.0185	183
55.0548	975
56.9654	999
57.0705	304
59.061	353
67.0548	857
79.0547	462
81.0703	315
91.0546	659
