Mass spectrum: 1,2-diarachidonoyl-sn-glycero-3-phosphoethanolamine; ESI-TOF; MS2; CE: 6.0000000;  [M+H]+
Name: 1,2-diarachidonoyl-sn-glycero-3-phosphoethanolamine
Class: NA
Formula: C45H74NO8P
Exact mass: 787.51520
SMILES: [H]C(=C([H])C([H])([H])C([H])=C([H])C([H])([H])C([H])([H])C([H])([H])C(=O)OC([H])([H])C([H])(OC(=O)C([H])([H])C([H])([H])C([H])([H])C([H])=C([H])C([H])([H])C([H])=C([H])C([H])([H])C([H])=C([H])C([H])([H])C([H])=C([H])C([H])([H])C([H])([H])C([H])([H])C([H])([H])C([H])([H])[H])C([H])([H])OP(=O)([O-])OC([H])([H])C([H])([H])[N+]([H])([H])[H])C([H])([H])C([H])=C([H])C([H])([H])C([H])=C([H])C([H])([H])C([H])([H])C([H])([H])C([H])([H])C([H])([H])[H]
InChI: InChI=1S/C45H74NO8P/c1-3-5-7-9-11-13-15-17-19-21-23-25-27-29-31-33-35-37-44(47)51-41-43(42-53-55(49,50)52-40-39-46)54-45(48)38-36-34-32-30-28-26-24-22-20-18-16-14-12-10-8-6-4-2/h11-14,17-20,23-26,29-32,43H,3-10,15-16,21-22,27-28,33-42,46H2,1-2H3,(H,49,50)
Instrument: waters xevo g2 TOF
Instrument type: ESI-TOF
Ms type: MS2
Ion mode: POSITIVE
Ionization: ESI
Collision energy: 6.0000000
Column name: Acquity CSHC18
Retention time: 10.792 min
Base peak: 788.52320
Precursor m/z: 788.52320
Precursor type: [M+H]+
m/z	relative intensity
413.739	47
414.2408	24
414.7436	8
432.7124	10
440.6993	4
479.188	73
480.1917	19
484.2825	4
495.1594	5
543.1191	5
587.3842	8
588.3849	7
647.5039	119
648.5075	60
649.509	11
650.5122	1
670.9436	14
671.4464	11
671.9446	6
783.4287	5
788.5232	924
789.5255	999
