Mass spectrum: (-)-linalool; APCI-ITFT; MS2; CE: 35 CID;  [M+H]+
Name: (-)-linalool
Class: NA
Formula: C10H18O
Exact mass: 154.13577
SMILES: CC(=CCCC(C)(C=C)O)C
InChI: InChI=1S/C10H18O/c1-5-10(4,11)8-6-7-9(2)3/h5,7,11H,1,6,8H2,2-4H3
Instrument: Orbitrap Elite
Instrument type: APCI-ITFT
Ms type: MS2
Ion mode: POSITIVE
Ionization: APCI
Collision energy: 35 CID
Column name: Acquity CSHC18
Retention time: 0.111 min
Base peak: 155.14260
Precursor m/z: 155.14260
Precursor type: [M+H]+
Precursor intensity: 257913.2
m/z	relative intensity
52.8797	61
53.9017	53
60.0647	69
61.8566	59
66.4596	59
81.0698	499
93.0695	127
95.0849	455
98.0592	70
107.0188	68
109.101	260
113.0955	151
122.4928	64
135.1165	65
137.0961	411
137.1311	711
137.3139	68
140.9979	92
148.9166	64
154.064	436
154.0972	349
154.1203	329
154.1579	461
155.0583	89
155.0683	176
155.0831	999
155.1046	334
155.1162	287
155.1327	261
155.1426	562
