Mass spectrum: Dihydroquercetin; LC-ESI-QTOF; MS2; CE: 50eV;  [M-H]-
Name: Dihydroquercetin
Class: Flavanonol
Formula: C15H12O7
Exact mass: 304.0583
SMILES: C1=CC(=C(C=C1C2C(C(=O)C3=C(C=C(C=C3O2)O)O)O)O)O
InChI: InChI=1S/C15H12O7/c16-7-4-10(19)12-11(5-7)22-15(14(21)13(12)20)6-1-2-8(17)9(18)3-6/h1-5,14-19,21H
Instrument: TIMS-TOF Pro, Bruker Daltonik; Elute UHPLC System, Bruker Daltonik
Instrument type: LC-ESI-QTOF
Ms type: MS2
Ion mode: NEGATIVE
Ionization: ESI
Collision energy: 50eV
Column name: Acquity CSHC18
Retention time: 5.432 min
Base peak: 303.0453
Precursor m/z: 303.0453
Precursor type: [M-H]-
Precursor intensity: 45295.78
m/z	relative intensity
21.7245	6
26.9937	3
31.2865	3
32.9846	3
41.0025	34
43.0187	6
45.6845	3
50.7037	4
57.0215	305
57.1395	3
57.2575	5
57.5849	6
58.0369	14
58.487	5
60.3391	8
63.0224	28
63.4952	5
65.0029	69
65.1759	3
66.0046	3
68.9969	14
69.9998	3
74.8049	6
77.0387	10
78.8861	4
81.0334	17
82.0357	4
83.0126	182
84.0198	4
85.0287	11
87.3502	4
89.345	10
92.0236	4
93.0322	29
95.0305	13
96.0198	25
97.4325	8
101.0371	8
102.7912	8
105.0333	20
106.036	5
107.0124	36
108.0687	11
109.028	31
109.9982	8
111.006	11
116.0287	4
118.2814	4
121.0288	67
122.0352	65
123.0423	180
123.2593	3
124.0167	17
125.0284	346
125.1007	3
125.1959	4
125.3353	5
125.4059	3
125.5119	3
125.8743	3
126.0247	35
127.0516	5
129.0338	8
130.0406	11
131.0458	8
132.0187	8
133.026	13
134.0354	12
135.0431	6
136.0086	3
137.0219	10
140.8204	7
143.0463	5
144.0021	5
145.0257	28
146.0338	15
147.0435	29
148.0471	7
149.0213	40
150.0297	139
150.3659	3
151.0182	61
152.01	50
153.0186	50
153.5457	3
154.0404	5
159.0431	6
161.0218	8
162.6023	6
164.0471	5
165.0604	4
171.0409	6
172.0487	8
174.0294	20
175.0376	114
175.4989	3
176.0424	17
177.0145	56
178.0207	21
178.9961	79
180.0037	37
181.0121	41
182.0382	3
185.0586	3
188.0478	14
189.0524	26
191.0369	8
193.0471	28
194.0496	10
195.0436	3
199.0364	55
200.0364	3
201.0143	11
203.0695	4
209.4163	3
213.0554	16
215.03	9
217.0462	131
218.0486	21
219.0252	24
230.0509	4
231.0636	37
232.0666	5
233.0404	5
236.0612	7
241.0438	30
242.0583	8
243.0258	4
245.0282	4
257.0411	25
258.0457	6
259.0573	78
259.466	2
259.7099	3
260.0581	38
261.4712	3
267.0279	8
275.0514	89
276.0538	22
277.0974	4
284.8703	3
285.0353	999
285.3123	5
285.4881	7
285.5573	4
285.7652	4
286.0398	81
287.0433	5
288.0058	3
298.3917	4
303.0426	47
