Mass spectrum: 5-trans Prostaglandin F2-alpha (tromethamine salt); ESI-TOF; MS2; CE: 0.6458333;  [M+H]+
Name: 5-trans Prostaglandin F2-alpha (tromethamine salt)
Class: NA
Formula: C20H34O5
Exact mass: 354.24062
SMILES: O[C@@H]1[C@H](C/C=C/CCCC(O)=O)[C@@H](/C=C/[C@@H](O)CCCCC)[C@H](O)C1
InChI: InChI=1S/C20H34O5/c1-2-3-6-9-15(21)12-13-17-16(18(22)14-19(17)23)10-7-4-5-8-11-20(24)25/h4,7,12-13,15-19,21-23H,2-3,5-6,8-11,14H2,1H3,(H,24,25)/b7-4+,13-12+/t15-,16+,17+,18-,19+/m0/s1
Instrument: waters xevo g2 TOF
Instrument type: ESI-TOF
Ms type: MS2
Ion mode: POSITIVE
Ionization: ESI
Collision energy: 0.6458333
Column name: Acquity CSHC18
Retention time: 3.618 min
Base peak: 355.24862
Precursor m/z: 355.24862
Precursor type: [M+H]+
m/z	relative intensity
67.0535	116
79.0545	155
81.0701	277
83.0865	23
91.0547	252
93.0704	281
95.0861	194
99.0814	29
105.071	359
107.0861	147
109.1019	66
117.0706	458
118.0741	25
119.0866	306
121.1025	207
128.0644	60
129.0703	494
131.0868	754
132.0893	31
133.1021	192
135.0819	61
141.0702	136
142.0752	40
143.0861	404
144.0881	28
145.1018	386
147.1169	121
149.1146	67
155.0854	165
156.0934	46
157.1019	490
159.1176	174
161.097	129
163.1095	26
167.0723	72
169.1014	269
171.1178	452
172.1209	45
173.1154	111
175.1108	100
181.1024	148
182.0035	66
183.115	131
184.1226	19
185.0966	250
187.1118	172
193.1222	23
195.1157	75
197.1335	62
199.1131	267
201.126	60
203.1083	69
215.1793	83
219.1583	8
227.1414	40
229.1543	17
239.1785	122
240.1839	21
241.1947	225
245.1889	35
247.2063	40
255.2087	122
257.1886	184
273.2201	45
275.2012	262
276.2035	38
283.2061	362
285.2181	31
289.212	18
291.2297	17
295.1384	18
301.2165	927
302.2197	159
313.2127	36
315.1764	22
318.1266	250
319.2266	205
320.2308	38
329.1126	21
331.1586	999
332.1628	119
337.2361	47
339.1578	29
341.1997	21
345.1374	16
346.1265	297
347.1294	492
348.1336	131
357.1712	46
