Mass spectrum: Ginkgetin; LC-ESI-QFT; MS2; CE: 15,30,45 (NCE);  [M+H]+
Name: Ginkgetin
Class: NA
Formula: C32H22O10
Exact mass: 566.1213
SMILES: COC1=CC(O)=C2C(=O)C=C(OC2=C1)C1=CC(=C(OC)C=C1)C1=C2OC(=CC(=O)C2=C(O)C=C1O)C1=CC=C(O)C=C1
InChI: InChI=1S/C32H22O10/c1-39-18-10-20(34)30-23(37)13-27(41-28(30)11-18)16-5-8-25(40-2)19(9-16)29-21(35)12-22(36)31-24(38)14-26(42-32(29)31)15-3-6-17(33)7-4-15/h3-14,33-36H,1-2H3
Instrument: QE Focus, Thermo Scientfic; UPLC I-Class, Waters
Instrument type: LC-ESI-QFT
Ms type: MS2
Ion mode: POSITIVE
Ionization: ESI
Collision energy: 15,30,45 (NCE)
Column name: Acquity CSHC18
Retention time: 3.647 min
Base peak: 567.1285
Precursor m/z: 567.1285
Precursor type: [M+H]+
Precursor intensity: 56245130
m/z	relative intensity
51.1949	2
60.1301	2
63.2873	3
121.0283	175
121.0375	5
167.0335	31
283.0607	6
311.0906	6
335.0924	4
363.9252	3
389.0619	3
390.0709	5
401.1004	14
417.0588	19
431.0736	35
432.0847	13
449.0824	6
535.1007	62
551.0981	3
564.4889	3
567.1268	999
