Mass spectrum: DIHYDROOROTATE; LC-ESI-QFT; MS2; CE: 30eV;  [M+H]+
Name: DIHYDROOROTATE
Class: NA
Formula: C5H6N2O4
Exact mass: 158.03276
SMILES: OC(=O)C1CC(=O)NC(=O)N1
InChI: InChI=1S/C5H6N2O4/c8-3-1-2(4(9)10)6-5(11)7-3/h2H,1H2,(H,9,10)(H2,6,7,8,11)
Instrument: Q-Exactive Orbitrap, Thermo Scientfic; Ultimate 3000 HPLC, Thermo Scientfic
Instrument type: LC-ESI-QFT
Ms type: MS2
Ion mode: POSITIVE
Ionization: ESI
Collision energy: 30eV
Column name: Acquity CSHC18
Retention time: 0.656 min
Base peak: 159.0400
Precursor m/z: 159.0400
Precursor type: [M+H]+
Precursor intensity: 159
m/z	relative intensity
71.019	13
74.0425	15
88.0496	39
89.0424	56
95.0678	77
97.9967	114
102.1099	129
114.0227	146
116.0326	179
117.9406	209
132.0018	256
158.1225	669
159.1006	999
