Mass spectrum: NICOTINE; LC-ESI-QTOF; MS2; CE: 40;  [M+H]+
Name: NICOTINE
Class: NA
Formula: C10H14N2
Exact mass: 162.11570
SMILES: [H][C@]1(CCCN1C)C1=CC=CN=C1
InChI: InChI=1S/C10H14N2/c1-12-7-3-5-10(12)9-4-2-6-11-8-9/h2,4,6,8,10H,3,5,7H2,1H3/t10-/m0/s1
Instrument: Agilent 6530Â Q-TOF LC/MS
Instrument type: LC-ESI-QTOF
Ms type: MS2
Ion mode: POSITIVE
Ionization: ESI
Collision energy: 40
Column name: NA
Retention time: 0.200 min
Base peak: 163.12581
Precursor m/z: 163.12581
Precursor type: [M+H]+
Precursor intensity: 134.5
m/z	relative intensity
41.0424	17
42.0564	18
44.0664	19
51.0411	20
52.0306	20
53.0588	21
53.1882	22
54.0422	23
55.056	23
56.0512	23
58.0663	24
63.0332	25
65.0627	29
66.0441	29
67.0563	30
69.0609	32
75.0258	34
77.0733	34
78.0642	35
79.0623	39
80.0822	40
80.6782	42
82.0871	46
84.1167	46
89.0679	50
90.0795	57
90.3299	57
91.0694	76
92.0758	78
93.0794	92
94.0634	96
102.0465	123
102.8325	138
103.0854	162
104.0536	168
105.0792	177
106.0921	180
115.0668	204
116.0648	224
117.1013	236
117.2611	267
117.4178	292
117.6301	401
118.0926	438
120.0845	469
128.06	516
130.1134	555
130.5004	601
131.0804	660
132.0863	999
