Mass spectrum: N-Acetylneuraminic acid; LC-ESI-QTOF; MS2; CE: 100;  [M-H]-
Name: N-Acetylneuraminic acid
Class: NA
Formula: C11H19NO9
Exact mass: 309.10598
SMILES: CC(=O)NC1C(CC(OC1C(C(CO)O)O)(C(=O)O)O)O
InChI: InChI=1S/C11H19NO9/c1-4(14)12-7-5(15)2-11(20,10(18)19)21-9(7)8(17)6(16)3-13/h5-9,13,15-17,20H,2-3H2,1H3,(H,12,14)(H,18,19)
Instrument: impact II
Instrument type: LC-ESI-QTOF
Ms type: MS2
Ion mode: NEGATIVE
Ionization: ESI
Collision energy: 100
Column name: Acquity CSHC18
Retention time: 1.684 min
Base peak: 308.09990
Precursor m/z: 308.09990
Precursor type: [M-H]-
m/z	relative intensity
52.0193	904
54.035	332
55.0191	123
58.0298	359
59.0139	999
