Mass spectrum: DEOXYCORTICOSTERONE ACETATE; LC-ESI-QFT; MS2; CE: 30eV;  [M+H]+
Name: DEOXYCORTICOSTERONE ACETATE
Class: NA
Formula: C23H32O4
Exact mass: 372.23006
SMILES: CC(=O)OCC(=O)C1CCC2C1(CCC3C2CCC4=CC(=O)CCC34C)C
InChI: InChI=1S/C23H32O4/c1-14(24)27-13-21(26)20-7-6-18-17-5-4-15-12-16(25)8-10-22(15,2)19(17)9-11-23(18,20)3/h12,17-20H,4-11,13H2,1-3H3
Instrument: Q-Exactive Orbitrap, Thermo Scientfic; Ultimate 3000 HPLC, Thermo Scientfic
Instrument type: LC-ESI-QFT
Ms type: MS2
Ion mode: POSITIVE
Ionization: ESI
Collision energy: 30eV
Column name: Acquity CSHC18
Retention time: 11.101 min
Base peak: 373.2373
Precursor m/z: 373.2373
Precursor type: [M+H]+
Precursor intensity: 123
m/z	relative intensity
53.5868	29
55.0367	31
69.0523	54
83.0678	65
95.0676	66
101.0419	111
121.0831	115
123.0988	128
129.0623	141
135.0986	160
147.0986	170
149.1142	178
161.1143	191
163.1299	196
175.13	222
185.1144	223
187.1298	228
189.1455	244
213.1455	267
225.1456	268
227.1609	294
235.1581	294
239.1603	387
249.1743	398
253.1765	498
255.192	516
267.1925	675
271.1884	999
