Mass spectrum: L-Glutamic acid; LC-ESI-ITFT; MS2; CE: 60;  [M+H]+
Name: L-Glutamic acid
Class: Organic acids and derivatives; Carboxylic acids and derivatives; Amino acids, peptides, and analogues
Formula: C5H9NO4
Exact mass: 147.05316
SMILES: N[C@@H](CCC(O)=O)C(O)=O
InChI: InChI=1S/C5H9NO4/c6-3(5(9)10)1-2-4(7)8/h3H,1-2,6H2,(H,7,8)(H,9,10)/t3-/m0/s1
Instrument: Thermo Scientific Q-Exactive Focus
Instrument type: LC-ESI-ITFT
Ms type: MS2
Ion mode: POSITIVE
Ionization: ESI
Collision energy: 60
Column name: Acquity CSHC18
Retention time: NA
Base peak: 148.06042
Precursor m/z: 148.06042
Precursor type: [M+H]+
m/z	relative intensity
53.0028	96
56.0501	999
68.1386	64
69.9448	66
97.8396	70
99.759	65
107.5056	71
113.5318	66
143.5495	70
145.2052	70
