Mass spectrum: 4-Methylumbelliferone; LC-ESI-QTOF; MS2; CE: 50eV;  [M+H]+
Name: 4-Methylumbelliferone
Class: Coumarin
Formula: C10H8O3
Exact mass: 176.0473
SMILES: CC1=CC(=O)OC2=C1C=CC(=C2)O
InChI: InChI=1S/C10H8O3/c1-6-4-10(12)13-9-5-7(11)2-3-8(6)9/h2-5,11H,1H3
Instrument: TIMS-TOF Pro, Bruker Daltonik; Elute UHPLC System, Bruker Daltonik
Instrument type: LC-ESI-QTOF
Ms type: MS2
Ion mode: POSITIVE
Ionization: ESI
Collision energy: 50eV
Column name: Acquity CSHC18
Retention time: 5.952 min
Base peak: 177.0558
Precursor m/z: 177.0558
Precursor type: [M+H]+
Precursor intensity: 409634.9
m/z	relative intensity
41.0389	3
49.0082	2
51.0233	25
53.0386	3
53.3986	2
63.0236	3
68.9969	38
77.0125	2
77.039	196
78.0421	8
79.0545	8
81.0661	4
86.2138	1
91.0545	55
92.0595	2
93.0593	5
94.0599	2
95.0504	14
101.0288	1
102.0424	3
103.0514	7
104.0573	5
105.0339	6
105.0697	208
106.0722	8
107.0484	8
115.0525	10
116.057	4
116.5447	1
121.065	247
122.0674	8
131.0494	23
133.0641	20
135.0426	3
147.0427	5
148.0526	9
149.0582	19
176.8848	2
177.0537	999
177.4318	10
