Mass spectrum: (20R,22S,25R)-3beta-Acetoxy-22,26-epimino-5alpha-cholestan-20-ol; APCI-ITFT; MS2; CE: 70 HCD;  [M+H]+
Name: (20R,22S,25R)-3beta-Acetoxy-22,26-epimino-5alpha-cholestan-20-ol
Class: NA
Formula: C29H49NO3
Exact mass: 459.37124
SMILES: C[C@@H](CN1)CC[C@H]1[C@](C)(O)[C@H]2CC[C@@]3([H])[C@]4([H])CC[C@@]5([H])C[C@@H](OC(C)=O)CC[C@]5(C)[C@@]4([H])CC[C@]23C
InChI: InChI=1S/C29H49NO3/c1-18-6-11-26(30-17-18)29(5,32)25-10-9-23-22-8-7-20-16-21(33-19(2)31)12-14-27(20,3)24(22)13-15-28(23,25)4/h18,20-26,30,32H,6-17H2,1-5H3/t18-,20+,21+,22+,23+,24+,25+,26+,27+,28+,29-/m1/s1
Instrument: Orbitrap Elite
Instrument type: APCI-ITFT
Ms type: MS2
Ion mode: POSITIVE
Ionization: APCI
Collision energy: 70 HCD
Column name: Acquity CSHC18
Retention time: 0.063 min
Base peak: 460.37800
Precursor m/z: 460.37800
Precursor type: [M+H]+
Precursor intensity: 2846308000
m/z	relative intensity
51.6701	7
51.77	6
77.0386	92
79.0543	500
81.0695	585
82.0651	14
83.0857	37
84.0804	73
91.0544	394
93.0701	495
94.065	14
95.0489	55
95.0853	431
96.0804	42
98.0965	999
103.0538	12
105.0445	89
105.0693	339
107.085	605
109.1006	202
110.0964	28
111.1036	8
112.1123	49
115.0545	13
117.0694	39
119.0854	208
121.1013	189
123.1165	43
124.1123	41
125.1199	34
126.128	396
128.0619	8
129.0694	17
131.0856	65
133.101	133
135.1162	106
138.1276	35
143.0855	21
145.1007	98
147.1171	149
149.1324	95
150.1274	32
152.1432	82
157.101	9
159.1177	78
161.1316	226
161.7316	7
163.1483	87
164.1439	8
166.159	12
170.1063	7
171.1166	16
173.133	34
175.1487	30
187.1475	20
199.1487	16
201.1639	13
203.8505	7
217.5824	8
240.1475	11
249.1432	7
255.2089	14
263.6607	7
274.6178	8
296.3062	8
345.6452	8
373.0461	7
380.3309	9
382.3482	447
383.3497	11
442.3678	97
460.3642	32
