Mass spectrum: DIHYDROBIOPTERIN; LC-ESI-QTOF; MS2; CE: 20;  [M+H]+
Name: DIHYDROBIOPTERIN
Class: NA
Formula: C9H13N5O3
Exact mass: 239.10184
SMILES: C[C@H](O)[C@H](O)C1=NC2=C(NC1)NC(N)=NC2=O
InChI: InChI=1S/C9H13N5O3/c1-3(15)6(16)4-2-11-7-5(12-4)8(17)14-9(10)13-7/h3,6,15-16H,2H2,1H3,(H4,10,11,13,14,17)/t3-,6-/m0/s1
Instrument: Agilent 6530Â Q-TOF LC/MS
Instrument type: LC-ESI-QTOF
Ms type: MS2
Ion mode: POSITIVE
Ionization: ESI
Collision energy: 20
Column name: NA
Retention time: 0.200 min
Base peak: 240.11208
Precursor m/z: 240.11208
Precursor type: [M+H]+
Precursor intensity: 147.5
m/z	relative intensity
43.027	28
44.0464	29
45.0425	29
53.0323	30
54.0366	31
56.0519	32
60.0622	33
67.0266	34
69.0093	34
74.0618	35
81.0528	36
82.0465	36
84.052	36
85.0559	37
86.0472	38
93.0279	38
94.045	39
95.0537	41
96.0649	44
97.0561	45
98.0693	48
108.0621	48
109.0623	50
110.0371	51
111.0645	52
112.0663	52
113.0452	53
120.0545	53
121.0582	53
123.0368	55
124.056	55
125.0538	57
126.0717	60
127.0808	63
133.0478	64
134.0545	65
135.0471	66
136.0593	67
138.0756	70
139.0605	72
140.0761	74
147.0594	78
148.0305	78
149.0503	79
150.0666	82
151.0757	83
152.0741	85
154.0879	86
161.0405	86
162.0494	87
163.065	94
164.0655	98
165.1096	108
165.714	112
166.1053	121
168.1204	130
178.0992	132
179.1141	138
180.1088	158
181.0637	173
193.0908	203
194.0836	224
195.1029	227
196.1048	261
197.0772	300
204.098	306
205.0776	493
222.1151	568
240.121	999
