Mass spectrum: Feruloylputrescine; LC-ESI-QTOF; MS2; CE: 20-40eV;  [M+H]+
Name: Feruloylputrescine
Class: Hydroxycinnamic acids and derivatives
Formula: C14H20N2O3
Exact mass: 264.1474
SMILES: COC=1C=C(C=CC1O)C(=C(C(=NCCCCN)O)[H])[H]
InChI: InChI=1S/C14H20N2O3/c1-19-13-10-11(4-6-12(13)17)5-7-14(18)16-9-3-2-8-15/h4-7,10,17H,2-3,8-9,15H2,1H3,(H,16,18)
Instrument: Impact II, Bruker; Dionex 3000, Thermo Scientific
Instrument type: LC-ESI-QTOF
Ms type: MS2
Ion mode: POSITIVE
Ionization: ESI
Collision energy: 20-40eV
Column name: Acquity CSHC18
Retention time: 3.296 min
Base peak: 265.1552
Precursor m/z: 265.1552
Precursor type: [M+H]+
Precursor intensity: 7935.62
m/z	relative intensity
95.0491	22
97.0286	9
103.0536	11
105.0332	11
105.068	10
106.0398	46
117.0331	209
118.0354	33
120.0795	17
124.1119	10
134.0358	62
144.0407	12
145.0285	140
146.0325	12
149.0594	38
150.0636	14
155.1071	19
176.064	10
177.0544	999
178.0591	86
201.547	10
248.1283	56
249.1316	18
263.1379	11
265.1537	17
