Mass spectrum: 3-HYDROXYANTHRANILATE; LC-ESI-QTOF; MS2; CE: 40;  [M+H]+
Name: 3-HYDROXYANTHRANILATE
Class: NA
Formula: C7H7NO3
Exact mass: 153.04259
SMILES: NC1=C(O)C=CC=C1C(O)=O
InChI: InChI=1S/C7H7NO3/c8-6-4(7(10)11)2-1-3-5(6)9/h1-3,9H,8H2,(H,10,11)
Instrument: Agilent 6530Â Q-TOF LC/MS
Instrument type: LC-ESI-QTOF
Ms type: MS2
Ion mode: POSITIVE
Ionization: ESI
Collision energy: 40
Column name: NA
Retention time: 0.200 min
Base peak: 154.04773
Precursor m/z: 154.04773
Precursor type: [M+H]+
Precursor intensity: 131.5
m/z	relative intensity
51.0188	27
51.0229	28
51.027	22
53.0277	201
53.0318	553
53.036	721
53.0402	666
53.0444	544
53.0485	426
53.0527	326
53.0569	246
53.0611	194
53.0652	154
53.0694	112
53.0736	80
53.0778	64
53.0819	48
53.0861	42
53.0903	30
53.0945	22
54.0214	20
54.0256	77
54.0298	125
54.034	121
54.0382	102
54.0424	82
54.0466	63
54.0509	49
54.0551	38
54.0593	28
54.0635	22
54.0677	19
63.0153	26
63.0198	39
63.0244	39
63.0289	34
63.0335	28
63.038	23
63.0426	19
64.0109	24
64.0155	26
64.0201	21
77.0349	31
77.0399	33
77.045	27
77.05	21
77.055	17
78.029	20
78.0341	17
80.0313	59
80.0364	391
80.0415	840
80.0466	999
80.0518	901
80.0569	722
80.062	547
80.0672	419
80.0723	327
80.0774	253
80.0825	193
80.0877	143
80.0928	104
80.0979	77
80.1031	61
80.1082	52
80.1133	43
80.1184	28
80.1236	17
