Mass spectrum: Nicotinuric acid; LC-ESI-ITFT; MS2; CE: 10;  [M+H]+
Name: Nicotinuric acid
Class: Organic acids and derivatives; Carboxylic acids and derivatives; Amino acids, peptides, and analogues
Formula: C8H8N2O3
Exact mass: 180.05349
SMILES: OC(=O)CNC(=O)C1=CN=CC=C1
InChI: InChI=1S/C8H8N2O3/c11-7(12)5-10-8(13)6-2-1-3-9-4-6/h1-4H,5H2,(H,10,13)(H,11,12)
Instrument: Thermo Scientific Q-Exactive Focus
Instrument type: LC-ESI-ITFT
Ms type: MS2
Ion mode: POSITIVE
Ionization: ESI
Collision energy: 10
Column name: Acquity CSHC18
Retention time: 0.348 min
Base peak: 181.06078
Precursor m/z: 181.06078
Precursor type: [M+H]+
m/z	relative intensity
79.0414	2
80.0498	1
106.0288	3
107.0604	3
108.0444	4
135.0552	682
137.0708	6
142.7219	1
163.0499	5
181.0606	999
