Mass spectrum: N-2-Brom-benzyliden-solanocapsin; APCI-ITFT; MS2; CE: 35 CID;  [M+H]+
Name: N-2-Brom-benzyliden-solanocapsin
Class: NA
Formula: C34H49BrN2O2
Exact mass: 596.29774
SMILES: C[C@@]12[C@](CC[C@]3([H])[C@]2([H])CC[C@@]4(C)[C@@]3([H])C[C@@]([H])(O[C@](C[C@@H](C)CN5)(O)[C@@]5([H])[C@H]6C)[C@@]46[H])([H])C[C@@H](/N=C/C7=CC=CC=C7Br)CC1
InChI: InChI=1S/C34H49BrN2O2/c1-20-17-34(38)31(37-18-20)21(2)30-29(39-34)16-27-25-10-9-23-15-24(36-19-22-7-5-6-8-28(22)35)11-13-32(23,3)26(25)12-14-33(27,30)4/h5-8,19-21,23-27,29-31,37-38H,9-18H2,1-4H3/b36-19+/t20-,21+,23+,24+,25-,26+,27+,29-,30+,31-,32+,33+,34+/m1/s1
Instrument: Orbitrap Elite
Instrument type: APCI-ITFT
Ms type: MS2
Ion mode: POSITIVE
Ionization: APCI
Collision energy: 35 CID
Column name: Acquity CSHC18
Retention time: 0.100 min
Base peak: 597.30570
Precursor m/z: 597.30570
Precursor type: [M+H]+
Precursor intensity: 246591600
m/z	relative intensity
183.9754	92
201.1865	2
214.0551	2
255.2092	17
281.2244	5
283.24	6
299.2385	46
322.7133	2
366.3112	3
376.3039	5
378.3161	24
394.3089	42
396.3254	999
412.3231	17
414.3356	329
428.632	3
438.178	4
440.1773	38
483.9818	3
510.2998	3
551.286	4
569.2971	5
579.291	36
581.3118	8
586.4406	2
592.6481	2
