Mass spectrum: Methylmalonic acid; LC-ESI-QTOF; MS2; CE: -10, -35, -60V;  [M-H]-
Name: Methylmalonic acid
Class: NA
Formula: C4H6O4
Exact mass: 118.0266
SMILES: CC(C(=O)O)C(=O)O
InChI: InChI=1S/C4H6O4/c1-2(3(5)6)4(7)8/h2H,1H3,(H,5,6)(H,7,8)
Instrument: TripleToF 5600; Sciex
Instrument type: LC-ESI-QTOF
Ms type: MS2
Ion mode: NEGATIVE
Ionization: ESI
Collision energy: -10, -35, -60V
Column name: Acquity CSHC18
Retention time: 9.422 min
Base peak: 117.0198
Precursor m/z: 117.0198
Precursor type: [M-H]-
Precursor intensity: 121165.9
m/z	relative intensity
73.03	999
74.0334	73
117.0207	721
