Mass spectrum: 14:0 Lyso PG; ESI-TOF; MS2; CE: 6.0000000;  [M+H]+
Name: 14:0 Lyso PG
Class: NA
Formula: C20H40NaO9P
Exact mass: 478.23076
SMILES: [Na+].[H]OC([H])([H])C([H])(O[H])C([H])([H])OP(=O)([O-])OC([H])([H])C([H])(O[H])C([H])([H])OC(=O)C([H])([H])C([H])([H])C([H])([H])C([H])([H])C([H])([H])C([H])([H])C([H])([H])C([H])([H])C([H])([H])C([H])([H])C([H])([H])C([H])([H])C([H])([H])[H]
InChI: InChI=1S/C20H41O9P.Na/c1-2-3-4-5-6-7-8-9-10-11-12-13-20(24)27-15-19(23)17-29-30(25,26)28-16-18(22)14-21;/h18-19,21-23H,2-17H2,1H3,(H,25,26);/q;+1/p-1
Instrument: waters xevo g2 TOF
Instrument type: ESI-TOF
Ms type: MS2
Ion mode: POSITIVE
Ionization: ESI
Collision energy: 6.0000000
Column name: Acquity CSHC18
Retention time: 8.518 min
Base peak: 479.23876
Precursor m/z: 479.23876
Precursor type: [M+H]+
m/z	relative intensity
248.1063	58
248.6082	16
285.2426	999
286.246	59
287.2499	8
324.2294	10
339.2702	8
365.2077	15
370.2175	7
380.2221	12
403.1552	3
421.2343	219
439.2454	55
440.248	32
449.177	14
457.2564	42
476.2276	46
476.7297	18
477.2316	7
479.2371	289
480.2412	18
