Mass spectrum: Decanoylcarnitine; LC-ESI-ITFT; MS2; CE: 60;  [M+H]+
Name: Decanoylcarnitine
Class: Lipids and lipid-like molecules; Fatty Acyls; Fatty acid esters
Formula: C17H33NO4
Exact mass: 315.24096
SMILES: CCCCCCCCCC(=O)OC(CC([O-])=O)C[N+](C)(C)C
InChI: InChI=1S/C17H33NO4/c1-5-6-7-8-9-10-11-12-17(21)22-15(13-16(19)20)14-18(2,3)4/h15H,5-14H2,1-4H3
Instrument: Thermo Scientific Q-Exactive Focus
Instrument type: LC-ESI-ITFT
Ms type: MS2
Ion mode: POSITIVE
Ionization: ESI
Collision energy: 60
Column name: Acquity CSHC18
Retention time: 1.751 min
Base peak: 316.24823
Precursor m/z: 316.24823
Precursor type: [M+H]+
m/z	relative intensity
55.0547	5
57.034	140
57.0704	26
58.0656	37
60.0812	99
67.0547	18
71.0859	6
81.0702	7
84.0811	71
85.0287	999
