Mass spectrum: Salicylic acid; LC-ESI-QTOF; MS2; CE: 15.00;  [M+H]+
Name: Salicylic acid
Class: NA
Formula: C7H6O3
Exact mass: 138.0317
SMILES: C1=CC=C(C(=C1)C(=O)O)O
InChI: InChI=1S/C7H6O3/c8-6-4-2-1-3-5(6)7(9)10/h1-4,8H,(H,9,10)
Instrument: Bruker MicrOTOF-Q
Instrument type: LC-ESI-QTOF
Ms type: MS2
Ion mode: POSITIVE
Ionization: ESI
Collision energy: 15.00
Column name: Acquity CSHC18
Retention time: NA
Base peak: 139.0390
Precursor m/z: 139.0390
Precursor type: [M+H]+
m/z	relative intensity
93.0296	20
94.0326	1
120.5182	1
120.95	1
121.0262	999
121.2086	1
121.234	1
121.2669	1
122.0293	74
123.0271	1
139.0368	4
