Mass spectrum: ARGININE; LC-ESI-QTOF; MS2; CE: 20;  [M-H]-
Name: ARGININE
Class: NA
Formula: C6H14N4O2
Exact mass: 174.11168
SMILES: N[C@@H](CCCN=C(N)N)C(O)=O
InChI: InChI=1S/C6H14N4O2/c7-4(5(11)12)2-1-3-10-6(8)9/h4H,1-3,7H2,(H,11,12)(H4,8,9,10)/t4-/m0/s1
Instrument: Agilent 6530Â Q-TOF LC/MS
Instrument type: LC-ESI-QTOF
Ms type: MS2
Ion mode: NEGATIVE
Ionization: ESI
Collision energy: 20
Column name: NA
Retention time: 0.200 min
Base peak: 173.10627
Precursor m/z: 173.10627
Precursor type: [M-H]-
Precursor intensity: 109
m/z	relative intensity
41.0214	105
58.0439	255
131.1033	999
