Mass spectrum: Norvaline; LC-ESI-QTOF; MS2; CE: 15 / 50;  [M+H]+
Name: Norvaline
Class: NA
Formula: C5H11NO2
Exact mass: 117.07898
SMILES: CCCC(C(=O)O)N
InChI: InChI=1S/C5H11NO2/c1-2-3-4(6)5(7)8/h4H,2-3,6H2,1H3,(H,7,8)
Instrument: impact II
Instrument type: LC-ESI-QTOF
Ms type: MS2
Ion mode: POSITIVE
Ionization: ESI
Collision energy: 15 / 50
Column name: Acquity CSHC18
Retention time: 0.590 min
Base peak: 118.08620
Precursor m/z: 118.08620
Precursor type: [M+H]+
m/z	relative intensity
45.0337	6
53.0384	4
55.0195	7
55.055	47
56.0582	4
72.0815	999
72.1482	3
73.0846	30
118.086	21
118.1222	3
119.085	3
