Mass spectrum: L-tryptophan; LC-ESI-QTOF; MS2; CE: -10, -35, -60V;  [M-H]-
Name: L-tryptophan
Class: NA
Formula: C11H12N2O2
Exact mass: 204.0899
SMILES: C1=CC=C2C(=C1)C(=CN2)CC(C(=O)O)N
InChI: InChI=1S/C11H12N2O2/c12-9(11(14)15)5-7-6-13-10-4-2-1-3-8(7)10/h1-4,6,9,13H,5,12H2,(H,14,15)
Instrument: TripleToF 5600; Sciex
Instrument type: LC-ESI-QTOF
Ms type: MS2
Ion mode: NEGATIVE
Ionization: ESI
Collision energy: -10, -35, -60V
Column name: Acquity CSHC18
Retention time: 3.212 min
Base peak: 203.0858
Precursor m/z: 203.0858
Precursor type: [M-H]-
Precursor intensity: 95612.38
m/z	relative intensity
74.0235	37
116.0512	138
142.0629	68
142.0713	69
159.0951	84
160.0957	8
172.0425	8
190.0557	8
203.0874	999
