Mass spectrum: Skimmin; LC-ESI-ITFT; MS2; CE: 45eV;  [M+H]+
Name: Skimmin
Class: coumarin
Formula: C15H16O8
Exact mass: 324.0845
SMILES: C1=CC(=CC2=C1C=CC(=O)O2)OC3C(C(C(C(O3)CO)O)O)O
InChI: InChI=1S/C15H16O8/c16-6-10-12(18)13(19)14(20)15(23-10)21-8-3-1-7-2-4-11(17)22-9(7)5-8/h1-5,10,12-16,18-20H,6H2
Instrument: LTQ Orbitrap XL, Thermo Scientfic; Dionex Ultimate 300
Instrument type: LC-ESI-ITFT
Ms type: MS2
Ion mode: POSITIVE
Ionization: ESI
Collision energy: 45eV
Column name: Alltima C18
Retention time: 7.44 min
Base peak: 325.0916
Precursor m/z: 325.0916
Precursor type: [M+H]+
m/z	relative intensity
106.836	999
144.9396	508
194.0301	122
219.013	237
