Mass spectrum: Jasmonoyl-L-isoleucine; LC-ESI-QTOF; MS2; CE: 50eV;  [M-H]-
Name: Jasmonoyl-L-isoleucine
Class: Fatty acid derivative
Formula: C18H29NO4
Exact mass: 323.2097
SMILES: CCC=CCC1C(CCC1=O)CC(=O)NC(C(C)CC)C(=O)O
InChI: InChI=1S/C18H29NO4/c1-4-6-7-8-14-13(9-10-15(14)20)11-16(21)19-17(18(22)23)12(3)5-2/h6-7,12-14,17H,4-5,8-11H2,1-3H3,(H,19,21)(H,22,23)
Instrument: TIMS-TOF Pro, Bruker Daltonik; Elute UHPLC System, Bruker Daltonik
Instrument type: LC-ESI-QTOF
Ms type: MS2
Ion mode: NEGATIVE
Ionization: ESI
Collision energy: 50eV
Column name: Acquity CSHC18
Retention time: 8.489 min
Base peak: 322.1970
Precursor m/z: 322.1970
Precursor type: [M-H]-
Precursor intensity: 147342.9
m/z	relative intensity
15.9506	10
35.4908	12
41.0024	34
41.9968	10
43.0176	16
48.0351	9
58.0285	68
69.0323	11
74.0216	11
81.0321	25
82.0644	53
84.0785	16
92.6374	13
95.0507	9
97.0643	10
109.063	9
110.0945	41
128.1084	185
130.0787	999
130.3111	11
130.4074	13
131.088	79
132.09	17
149.0934	32
154.0862	14
159.962	12
160.2553	9
165.1251	20
172.0951	147
173.0966	10
193.1226	11
208.1324	17
261.7019	11
278.2074	23
283.7284	9
291.911	15
304.1842	11
322.1902	663
