Mass spectrum: ent-Prostaglandin F2-alpha; ESI-TOF; MS2; CE: 0.6458333;  [M+H]+
Name: ent-Prostaglandin F2-alpha
Class: NA
Formula: C20H34O5
Exact mass: 354.24062
SMILES: O[C@H]1[C@@H](C/C=C\CCCC(O)=O)[C@H](/C=C/[C@H](O)CCCCC)[C@@H](O)C1
InChI: InChI=1S/C20H34O5/c1-2-3-6-9-15(21)12-13-17-16(18(22)14-19(17)23)10-7-4-5-8-11-20(24)25/h4,7,12-13,15-19,21-23H,2-3,5-6,8-11,14H2,1H3,(H,24,25)/b7-4-,13-12+/t15-,16+,17+,18-,19+/m1/s1
Instrument: waters xevo g2 TOF
Instrument type: ESI-TOF
Ms type: MS2
Ion mode: POSITIVE
Ionization: ESI
Collision energy: 0.6458333
Column name: Acquity CSHC18
Retention time: 3.664 min
Base peak: 355.24862
Precursor m/z: 355.24862
Precursor type: [M+H]+
m/z	relative intensity
67.0539	148
79.0548	273
81.07	243
85.0297	12
87.0447	188
91.0549	452
93.0705	554
94.0735	32
97.0669	87
99.0444	16
105.0713	579
107.0863	62
109.1014	110
113.097	19
115.0396	66
117.0718	614
119.0862	509
121.066	162
123.1158	51
125.0595	29
129.0713	824
131.0864	897
132.0923	66
133.1022	335
135.1176	138
137.1315	27
141.0718	198
142.0764	53
143.0864	707
144.0916	62
145.1029	670
146.1065	64
147.0824	156
149.0957	134
153.0912	9
155.0865	251
157.1022	765
159.1176	235
161.1326	130
163.0764	19
169.1023	226
171.1184	632
172.1212	74
173.1149	68
175.1126	134
177.1248	23
179.1048	37
181.1128	252
183.0609	91
184.1212	23
185.0957	368
186.1	41
187.1121	282
188.1037	30
189.1642	83
191.1047	37
195.1022	112
197.1325	67
199.1123	345
200.1155	36
203.1076	127
205.1584	62
213.1463	85
215.179	102
217.1226	123
219.1404	34
221.1515	32
224.1494	13
225.061	28
227.1423	40
229.1952	71
231.1409	47
237.168	24
239.1796	152
240.1838	26
241.1949	322
245.1736	34
247.2041	67
253.1961	14
255.209	76
257.1906	198
258.1941	28
259.2042	97
260.2028	18
263.197	25
265.2068	166
267.2106	28
269.1884	14
273.2202	79
275.2009	247
276.2022	41
283.2053	527
284.2094	78
291.2341	20
295.2043	22
299.2077	66
300.217	19
301.2162	999
302.2184	158
303.229	144
305.2124	45
313.2148	62
314.1377	51
318.1278	227
319.2265	207
325.2363	22
328.1271	17
329.1141	14
331.1581	433
332.1654	82
337.2377	38
341.2043	42
343.2472	58
345.132	43
346.1273	224
347.1307	783
348.1362	166
349.1321	276
350.134	39
351.1283	71
355.1348	57
357.1762	88
