Mass spectrum: Silybin; LC-ESI-QTOF; MS2; CE: 50eV;  [M+H]+
Name: Silybin
Class: Flavonolignan
Formula: C25H22O10
Exact mass: 482.1213
SMILES: COC1=C(C=CC(=C1)C2C(OC3=C(O2)C=C(C=C3)C4C(C(=O)C5=C(C=C(C=C5O4)O)O)O)CO)O
InChI: InChI=1S/C25H22O10/c1-32-17-6-11(2-4-14(17)28)24-20(10-26)33-16-5-3-12(7-18(16)34-24)25-23(31)22(30)21-15(29)8-13(27)9-19(21)35-25/h2-9,20,23-29,31H,10H2,1H3
Instrument: TIMS-TOF Pro, Bruker Daltonik; Elute UHPLC System, Bruker Daltonik
Instrument type: LC-ESI-QTOF
Ms type: MS2
Ion mode: POSITIVE
Ionization: ESI
Collision energy: 50eV
Column name: Acquity CSHC18
Retention time: 7.141 min
Base peak: 483.1266
Precursor m/z: 483.1266
Precursor type: [M+H]+
Precursor intensity: 33746.75
m/z	relative intensity
123.0432	154
153.0135	140
195.0091	142
199.0221	129
301.1106	109
307.0534	999
419.1054	133
465.1212	100
