Mass spectrum: Argininosuccinic acid; LC-ESI-QTOF; MS2; CE: 100;  [M+H]+
Name: Argininosuccinic acid
Class: NA
Formula: C10H18N4O6
Exact mass: 290.12263
SMILES: N[C@@H](CCCNC(=N)N[C@@H](CC(O)=O)C(O)=O)C(O)=O
InChI: InChI=1S/C10H18N4O6/c11-5(8(17)18)2-1-3-13-10(12)14-6(9(19)20)4-7(15)16/h5-6H,1-4,11H2,(H,15,16)(H,17,18)(H,19,20)(H3,12,13,14)/t5-,6-/m0/s1
Instrument: impact II
Instrument type: LC-ESI-QTOF
Ms type: MS2
Ion mode: POSITIVE
Ionization: ESI
Collision energy: 100
Column name: Acquity CSHC18
Retention time: 1.963 min
Base peak: 291.13000
Precursor m/z: 291.13000
Precursor type: [M+H]+
m/z	relative intensity
45.0176	3
45.0338	3
45.0461	3
46.0292	34
51.0231	8
53.0026	16
53.014	10
53.0391	43
54.0158	3
54.0343	6
54.0418	3
55.0178	4
55.0295	14
55.0551	11
57.0339	3
57.0454	52
58.0294	7
58.0511	3
60.0588	4
67.0297	8
68.0502	61
69.0089	10
69.046	4
69.0537	5
70.0296	9
70.0657	999
70.1242	3
70.1332	5
71.0133	7
71.0236	3
71.0496	6
71.0689	52
74.0242	4
81.0442	5
84.0558	4
105.0464	3
187.0576	1
803.5358	1
