Mass spectrum: 15(R)-17-phenyl trinor Prostaglandin F2-alpha isopropyl ester; ESI-TOF; MS2; CE: 0.6458333;  [M+H]+
Name: 15(R)-17-phenyl trinor Prostaglandin F2-alpha isopropyl ester
Class: NA
Formula: C26H38O5
Exact mass: 430.27192
SMILES: O[C@@H]1[C@H](C/C=C\CCCC(OC(C)C)=O)[C@@H](/C=C/[C@H](O)CCC2=CC=CC=C2)[C@H](O)C1
InChI: InChI=1S/C26H38O5/c1-19(2)31-26(30)13-9-4-3-8-12-22-23(25(29)18-24(22)28)17-16-21(27)15-14-20-10-6-5-7-11-20/h3,5-8,10-11,16-17,19,21-25,27-29H,4,9,12-15,18H2,1-2H3/b8-3-,17-16+/t21-,22-,23-,24+,25-/m1/s1
Instrument: waters xevo g2 TOF
Instrument type: ESI-TOF
Ms type: MS2
Ion mode: POSITIVE
Ionization: ESI
Collision energy: 0.6458333
Column name: Acquity CSHC18
Retention time: 4.184 min
Base peak: 431.27992
Precursor m/z: 431.27992
Precursor type: [M+H]+
m/z	relative intensity
79.0536	18
87.0437	14
91.0555	555
92.0584	38
93.0706	46
97.0637	10
105.0712	243
109.065	14
117.0714	515
118.075	43
119.087	63
121.102	22
125.0635	5
128.0617	25
129.0711	204
131.0869	999
133.1027	93
141.0703	136
143.0868	218
144.0904	21
145.1028	87
146.1039	13
147.0808	34
149.0979	24
153.071	11
155.0867	81
157.102	152
159.1179	61
167.0856	103
169.1021	192
171.1168	160
172.123	16
173.116	27
175.1145	23
179.0875	68
180.0873	8
181.1027	131
184.1237	17
185.1155	54
187.1128	153
189.1278	16
191.085	14
193.1032	46
195.1183	89
196.1209	9
197.1338	32
203.1069	21
205.1227	90
207.1161	167
208.1231	35
209.1306	36
210.1324	6
211.1591	36
213.1279	83
214.1295	7
219.1297	42
221.1336	102
223.1473	21
225.1277	23
226.1368	10
227.0557	25
229.0514	7
231.1376	77
233.1346	50
234.1404	13
235.1605	30
237.1262	13
239.1447	31
251.1431	22
253.1236	5
263.1619	2
269.1563	10
272.148	5
273.163	59
275.1797	104
276.1851	17
289.1734	26
291.175	74
292.1764	15
293.1879	14
299.1803	145
300.1815	24
307.169	6
309.1849	76
311.1958	8
317.1902	272
318.1935	64
319.1999	11
326.3792	85
327.3808	15
335.2011	370
336.204	90
337.2169	8
347.1334	22
349.1745	10
351.232	50
352.2339	10
353.2119	92
354.2156	15
363.108	60
365.1438	342
366.1469	59
377.2482	316
378.2521	71
381.1171	44
391.1574	72
392.1648	39
393.1995	83
394.1603	260
395.1648	80
396.2594	9
397.1661	15
407.1603	79
409.1699	324
410.1723	78
411.2174	306
411.7178	22
412.1696	27
413.2703	9
419.2247	6
422.1618	24
423.1628	124
424.1605	33
426.1709	38
427.1781	225
428.1781	76
432.2499	36
