Mass spectrum: Geraniol; ESI-TOF; MS2; CE: 6.0000000;  [M+H]+
Name: Geraniol
Class: NA
Formula: C10H18O
Exact mass: 154.13577
SMILES: CC(C)=CCCC(C)=CCO
InChI: InChI=1S/C10H18O/c1-9(2)5-4-6-10(3)7-8-11/h5,7,11H,4,6,8H2,1-3H3
Instrument: waters xevo g2 TOF
Instrument type: ESI-TOF
Ms type: MS2
Ion mode: POSITIVE
Ionization: ESI
Collision energy: 6.0000000
Column name: Acquity CSHC18
Retention time: 3.864 min
Base peak: 155.14377
Precursor m/z: 155.14377
Precursor type: [M+H]+
m/z	relative intensity
67.0556	3
69.0711	3
81.071	124
82.0742	8
83.0866	3
91.0551	1
93.0708	14
94.0744	1
95.0864	167
96.0898	14
101.9651	1
105.0707	9
107.0863	37
108.0907	4
109.102	113
110.1054	10
111.1172	9
119.0499	16
120.0903	1
121.102	1
122.1065	8
123.1176	103
124.1211	9
125.1324	2
127.112	1
131.9761	1
133.1018	13
134.1056	1
135.1176	110
136.1212	13
137.1986	999
138.137	197
139.1131	5
147.0366	31
148.1213	7
149.1333	177
150.1365	22
151.1486	26
152.0725	2
153.1285	12
155.1436	39
156.1467	4
156.996	1
