Mass spectrum: Kaempferol; LC-ESI-QFT; MS2; CE: 15,30,45 (NCE);  [M+H]+
Name: Kaempferol
Class: NA
Formula: C15H10O6
Exact mass: 286.0477
SMILES: OC1=CC=C(C=C1)C1=C(O)C(=O)C2=C(O)C=C(O)C=C2O1
InChI: InChI=1S/C15H10O6/c16-8-3-1-7(2-4-8)15-14(20)13(19)12-10(18)5-9(17)6-11(12)21-15/h1-6,16-18,20H
Instrument: QE Focus, Thermo Scientfic; UPLC I-Class, Waters
Instrument type: LC-ESI-QFT
Ms type: MS2
Ion mode: POSITIVE
Ionization: ESI
Collision energy: 15,30,45 (NCE)
Column name: Acquity CSHC18
Retention time: 2.433 min
Base peak: 287.0547
Precursor m/z: 287.0547
Precursor type: [M+H]+
Precursor intensity: 74461040
m/z	relative intensity
60.79	3
73.8338	2
79.3211	2
84.707	2
109.3811	2
111.008	5
112.7826	2
121.0285	13
121.4508	2
133.0283	3
144.3717	2
153.0184	22
165.0184	15
183.0288	5
213.0545	11
231.0655	4
241.0499	5
258.0519	4
264.2705	2
287.055	999
