Mass spectrum: ELAIDATE; LC-ESI-QFT; MS2; CE: 30eV;  [M-H]-
Name: ELAIDATE
Class: NA
Formula: C18H34O2
Exact mass: 282.25588
SMILES: CCCCCCCC\C=C\CCCCCCCC(O)=O
InChI: InChI=1S/C18H34O2/c1-2-3-4-5-6-7-8-9-10-11-12-13-14-15-16-17-18(19)20/h9-10H,2-8,11-17H2,1H3,(H,19,20)/b10-9+
Instrument: Q-Exactive Orbitrap, Thermo Scientfic; Ultimate 3000 HPLC, Thermo Scientfic
Instrument type: LC-ESI-QFT
Ms type: MS2
Ion mode: NEGATIVE
Ionization: ESI
Collision energy: 30eV
Column name: Acquity CSHC18
Retention time: 13.740 min
Base peak: 281.2486
Precursor m/z: 281.2486
Precursor type: [M-H]-
Precursor intensity: 128
m/z	relative intensity
51.6461	23
60.5493	23
63.0643	23
72.7515	30
74.0027	24
80.4551	24
83.7886	28
88.5669	29
99.245	30
105.888	27
130.2146	27
198.5147	31
236.8987	28
258.6125	34
281.2486	999
282.2519	60
