Mass spectrum: 2,3-dihydroxybenzoic acid; LC-ESI-QTOF; MS2; CE: 15.00;  [M+H]+
Name: 2,3-dihydroxybenzoic acid
Class: NA
Formula: C7H6O4
Exact mass: 154.0266
SMILES: C1=CC(=C(C(=C1)O)O)C(=O)O
InChI: InChI=1S/C7H6O4/c8-5-3-1-2-4(6(5)9)7(10)11/h1-3,8-9H,(H,10,11)
Instrument: Bruker MicrOTOF-Q
Instrument type: LC-ESI-QTOF
Ms type: MS2
Ion mode: POSITIVE
Ionization: ESI
Collision energy: 15.00
Column name: Acquity CSHC18
Retention time: NA
Base peak: 155.0339
Precursor m/z: 155.0339
Precursor type: [M+H]+
m/z	relative intensity
81.0252	1
96.0159	1
107.009	77
108.0126	2
109.0244	124
110.0289	8
111.0329	1
127.0389	2
136.0182	1
136.7673	1
136.9027	1
137.0206	999
137.2186	2
137.3355	1
137.4186	2
137.5474	1
138.0243	80
139.0255	1
149.275	1
155.0347	1
