Mass spectrum: Pyruvic acid; LC-ESI-ITFT; MS2; CE: 20;  [M-H]-
Name: Pyruvic acid
Class: Organic acids and derivatives; Keto acids and derivatives; Alpha-keto acids and derivatives
Formula: C3H4O3
Exact mass: 88.01604
SMILES: CC(=O)C(O)=O
InChI: InChI=1S/C3H4O3/c1-2(4)3(5)6/h1H3,(H,5,6)
Instrument: Thermo Scientific Q-Exactive Focus
Instrument type: LC-ESI-ITFT
Ms type: MS2
Ion mode: NEGATIVE
Ionization: ESI
Collision energy: 20
Column name: Acquity CSHC18
Retention time: 0.644 min
Base peak: 87.00877
Precursor m/z: 87.00877
Precursor type: [M-H]-
m/z	relative intensity
54.9583	880
58.8638	876
60.9246	860
64.5725	863
72.0561	973
72.6261	883
77.9951	880
86.4274	932
95.7123	917
102.7327	999
