Mass spectrum: Capric acid; LC-ESI-QTOF; MS2; CE: 15;  [M-H]-
Name: Capric acid
Class: NA
Formula: C10H20O2
Exact mass: 172.1463
SMILES: CCCCCCCCCC(=O)O
InChI: InChI=1S/C10H20O2/c1-2-3-4-5-6-7-8-9-10(11)12/h2-9H2,1H3,(H,11,12)
Instrument: Bruker MicrOTOF-Q
Instrument type: LC-ESI-QTOF
Ms type: MS2
Ion mode: NEGATIVE
Ionization: ESI
Collision energy: 15
Column name: Acquity CSHC18
Retention time: NA
Base peak: 171.1391
Precursor m/z: 171.1391
Precursor type: [M-H]-
m/z	relative intensity
60.8822	83
64.2803	92
126.6481	88
132.5794	121
139.3719	83
155.3186	142
161.8635	100
162.5777	138
166.5202	100
171.1383	999
172.1461	134
178.2967	109
232.3128	83
269.651	109
336.0589	88
336.4063	130
348.2548	109
375.1666	96
385.5871	109
529.2615	109
536.4693	88
539.0028	130
583.9074	142
609.4331	146
624.5389	142
674.2017	130
765.2417	104
931.2789	100
931.9621	113
965.7082	92
975.6923	92
1003.4867	92
