Mass spectrum: C16-20:3 PC; ESI-TOF; MS2; CE: 6.0000000;  [M+H]+
Name: C16-20:3 PC
Class: NA
Formula: C44H84NO7P
Exact mass: 769.59854
SMILES: [H]C(=C([H])C([H])([H])C([H])=C([H])C([H])([H])C([H])([H])C([H])([H])C([H])([H])C([H])([H])C([H])([H])C(=O)OC([H])(C([H])([H])OC([H])([H])C([H])([H])C([H])([H])C([H])([H])C([H])([H])C([H])([H])C([H])([H])C([H])([H])C([H])([H])C([H])([H])C([H])([H])C([H])([H])C([H])([H])C([H])([H])C([H])([H])C([H])([H])[H])C([H])([H])OP(=O)([O-])OC([H])([H])C([H])([H])[N+](C([H])([H])[H])(C([H])([H])[H])C([H])([H])[H])C([H])([H])C([H])=C([H])C([H])([H])C([H])([H])C([H])([H])C([H])([H])C([H])([H])[H]
InChI: InChI=1S/C44H84NO7P/c1-6-8-10-12-14-16-18-20-22-23-24-25-27-29-31-33-35-37-44(46)52-43(42-51-53(47,48)50-40-38-45(3,4)5)41-49-39-36-34-32-30-28-26-21-19-17-15-13-11-9-7-2/h14,16,20,22,24-25,43H,6-13,15,17-19,21,23,26-42H2,1-5H3
Instrument: waters xevo g2 TOF
Instrument type: ESI-TOF
Ms type: MS2
Ion mode: POSITIVE
Ionization: ESI
Collision energy: 6.0000000
Column name: Acquity CSHC18
Retention time: 11.455 min
Base peak: 770.60654
Precursor m/z: 770.60654
Precursor type: [M+H]+
m/z	relative intensity
101.9654	2
127.9596	2
184.0746	5
345.2109	23
346.2142	11
355.0701	2
361.1832	8
362.1855	2
396.7935	3
404.7812	407
405.2799	198
405.7845	48
406.2855	5
406.7783	7
407.2791	2
412.767	19
413.769	4
456.7605	2
464.3507	65
465.3537	25
469.7589	5
470.2602	3
477.7434	3
554.8736	2
587.5403	2
610.1839	4
611.1848	2
615.1404	2
770.6055	999
771.6095	530
