Mass spectrum: Indole-3-acetic acid; LC-ESI-QTOF; MS2; CE: 15.00;  [M+H]+
Name: Indole-3-acetic acid
Class: NA
Formula: C10H9NO2
Exact mass: 175.0633
SMILES: C1=CC=C2C(=C1)C(=CN2)CC(=O)O
InChI: InChI=1S/C10H9NO2/c12-10(13)5-7-6-11-9-4-2-1-3-8(7)9/h1-4,6,11H,5H2,(H,12,13)
Instrument: Bruker MicrOTOF-Q
Instrument type: LC-ESI-QTOF
Ms type: MS2
Ion mode: POSITIVE
Ionization: ESI
Collision energy: 15.00
Column name: Acquity CSHC18
Retention time: NA
Base peak: 176.0706
Precursor m/z: 176.0706
Precursor type: [M+H]+
m/z	relative intensity
103.0529	1
117.0561	2
128.0485	13
129.0613	1
129.4916	1
130.0651	999
130.2565	2
130.3289	1
130.4259	2
130.4981	1
131.0683	88
132.075	1
176.0711	7
