Mass spectrum: acyl sugar_S4:19 (4,5,5,5); LC-ESI-ITFT; MS2; CE: 35 NCE;  [M+FA-H]-
Name: acyl sugar_S4:19 (4,5,5,5)
Class: acyl sugar
Formula: C31H52O15
Exact mass: 664.3306
SMILES: CC(C)CC(=O)OCC1C(C(C(O1)(CO)OC2C(C(C(C(O2)CO)OC(=O)CC(C)C)OC(=O)CC(C)C)OC(=O)C(C)C)O)O
InChI: InChI=1S/C31H52O15/c1-15(2)9-21(34)40-13-20-24(37)28(38)31(14-33,45-20)46-30-27(44-29(39)18(7)8)26(43-23(36)11-17(5)6)25(19(12-32)41-30)42-22(35)10-16(3)4/h15-20,24-28,30,32-33,37-38H,9-14H2,1-8H3
Instrument: LTQ Orbitrap XL, Thermo Scientfic; Aquity (U)HPLC, Waters
Instrument type: LC-ESI-ITFT
Ms type: MS2
Ion mode: NEGATIVE
Ionization: ESI
Collision energy: 35 NCE
Column name: Acquity CSHC18
Retention time: 31.783 min
Base peak: 709.3278
Precursor m/z: 709.3278
Precursor type: [M+FA-H]-
Precursor intensity: 108422.4
m/z	relative intensity
434.5413	66
477.1973	134
525.5989	999
561.2542	207
