Mass spectrum: Daidzein; LC-ESI-ITFT; MS2; CE: 40;  [M+H]+
Name: Daidzein
Class: Phenylpropanoids and polyketides; Isoflavonoids; Isoflav-2-enes
Formula: C15H10O4
Exact mass: 254.05791
SMILES: OC1=CC=C(C=C1)C1=COC2=C(C=CC(O)=C2)C1=O
InChI: InChI=1S/C15H10O4/c16-10-3-1-9(2-4-10)13-8-19-14-7-11(17)5-6-12(14)15(13)18/h1-8,16-17H
Instrument: Thermo Scientific Q-Exactive Focus
Instrument type: LC-ESI-ITFT
Ms type: MS2
Ion mode: POSITIVE
Ionization: ESI
Collision energy: 40
Column name: Acquity CSHC18
Retention time: 1.468 min
Base peak: 255.06519
Precursor m/z: 255.06519
Precursor type: [M+H]+
m/z	relative intensity
65.039	271
81.0338	170
91.0545	999
119.0492	120
128.062	335
137.0232	646
152.0619	474
153.0697	460
181.0645	608
199.0751	285
