Mass spectrum: o-Anisic acid; LC-ESI-QTOF; MS2; CE: 35.00;  [2M+Na]+
Name: o-Anisic acid
Class: NA
Formula: C8H8O3
Exact mass: 152.0473
SMILES: COC1=CC=CC=C1C(=O)O
InChI: InChI=1S/C8H8O3/c1-11-7-5-3-2-4-6(7)8(9)10/h2-5H,1H3,(H,9,10)
Instrument: Bruker MicrOTOF-Q
Instrument type: LC-ESI-QTOF
Ms type: MS2
Ion mode: POSITIVE
Ionization: ESI
Collision energy: 35.00
Column name: Acquity CSHC18
Retention time: NA
Base peak: 327.0827
Precursor m/z: 327.0827
Precursor type: [2M+Na]+
m/z	relative intensity
135.0425	999
136.0431	106
144.9903	223
175.0361	788
176.0484	47
