Mass spectrum: Tryptamine; LC-ESI-ITFT; MS2; CE: 20;  [M+H]+
Name: Tryptamine
Class: Organoheterocyclic compounds; Indoles and derivatives; Tryptamines and derivatives
Formula: C10H12N2
Exact mass: 160.10005
SMILES: NCCC1=CNC2=CC=CC=C12
InChI: InChI=1S/C10H12N2/c11-6-5-8-7-12-10-4-2-1-3-9(8)10/h1-4,7,12H,5-6,11H2
Instrument: Thermo Scientific Q-Exactive Focus
Instrument type: LC-ESI-ITFT
Ms type: MS2
Ion mode: POSITIVE
Ionization: ESI
Collision energy: 20
Column name: Acquity CSHC18
Retention time: 0.631 min
Base peak: 161.10732
Precursor m/z: 161.10732
Precursor type: [M+H]+
m/z	relative intensity
91.0546	17
103.0545	16
115.0544	37
117.0575	16
117.07	144
128.0494	9
143.0729	110
144.0808	999
145.0647	27
155.0603	26
