Mass spectrum: Tetracosanoic acid; LC-ESI-QTOF; MS2; CE: 15 / 50;  [M-H]-
Name: Tetracosanoic acid
Class: NA
Formula: C24H48O2
Exact mass: 368.3654
SMILES: CCCCCCCCCCCCCCCCCCCCCCCC(=O)O
InChI: InChI=1S/C24H48O2/c1-2-3-4-5-6-7-8-9-10-11-12-13-14-15-16-17-18-19-20-21-22-23-24(25)26/h2-23H2,1H3,(H,25,26)
Instrument: impact II
Instrument type: LC-ESI-QTOF
Ms type: MS2
Ion mode: NEGATIVE
Ionization: ESI
Collision energy: 15 / 50
Column name: Acquity CSHC18
Retention time: 0.701 min
Base peak: 367.3588
Precursor m/z: 367.3588
Precursor type: [M-H]-
m/z	relative intensity
367.3589	999
368.3627	313
