Mass spectrum: Imidazoleacetic acid; ESI-TOF; MS2; CE: 6.0000000;  [M+H]+
Name: Imidazoleacetic acid
Class: NA
Formula: C5H6N2O2
Exact mass: 126.04293
SMILES: OC(=O)CC1=CN=CN1
InChI: InChI=1S/C5H6N2O2/c8-5(9)1-4-2-6-3-7-4/h2-3H,1H2,(H,6,7)(H,8,9)
Instrument: waters xevo g2 TOF
Instrument type: ESI-TOF
Ms type: MS2
Ion mode: POSITIVE
Ionization: ESI
Collision energy: 6.0000000
Column name: Acquity CSHC18
Retention time: 0.512 min
Base peak: 127.05093
Precursor m/z: 127.05093
Precursor type: [M+H]+
m/z	relative intensity
81.0453	77
82.0482	3
99.9695	12
102.1279	5
109.0398	3
113.0786	2
117.9805	3
124.9559	2
124.9569	1
127.0506	999
128.0532	73
133.9277	2
141.0663	34
142.0687	1
142.9628	4
145.018	2
149.001	1
155.0817	18
156.0842	1
158.003	4
158.0033	4
162.9896	1
186.9808	4
191.0227	9
246.8628	2
262.0153	1
277.8804	1
291.0423	1
306.0071	2
454.0333	2
