Mass spectrum: Nicotinuric acid; ESI-TOF; MS2; CE: 6.0000000;  [M+H]+
Name: Nicotinuric acid
Class: NA
Formula: C8H8N2O3
Exact mass: 180.05349
SMILES: OC(=O)CNC(=O)C1=CN=CC=C1
InChI: InChI=1S/C8H8N2O3/c11-7(12)5-10-8(13)6-2-1-3-9-4-6/h1-4H,5H2,(H,10,13)(H,11,12)
Instrument: waters xevo g2 TOF
Instrument type: ESI-TOF
Ms type: MS2
Ion mode: POSITIVE
Ionization: ESI
Collision energy: 6.0000000
Column name: Acquity CSHC18
Retention time: 0.793 min
Base peak: 181.06149
Precursor m/z: 181.06149
Precursor type: [M+H]+
m/z	relative intensity
106.0291	2
107.0606	6
108.0447	1
136.0586	85
137.0681	17
137.9877	25
163.0501	10
181.2549	999
182.0639	573
