Mass spectrum: Methoxsalen; LC-ESI-ITFT; MS2; CE: 45eV;  [M+H]+
Name: Methoxsalen
Class: coumarin
Formula: C12H8O4
Exact mass: 216.0423
SMILES: COC1=C2C(=CC3=C1OC=C3)C=CC(=O)O2
InChI: InChI=1S/C12H8O4/c1-14-12-10-8(4-5-15-10)6-7-2-3-9(13)16-11(7)12/h2-6H,1H3
Instrument: LTQ Orbitrap XL, Thermo Scientfic; Dionex Ultimate 300
Instrument type: LC-ESI-ITFT
Ms type: MS2
Ion mode: POSITIVE
Ionization: ESI
Collision energy: 45eV
Column name: Alltima C18
Retention time: 17.57 min
Base peak: 217.0488
Precursor m/z: 217.0488
Precursor type: [M+H]+
m/z	relative intensity
98.9895	4
110.9628	7
131.0372	12
135.022	24
140.8616	2
155.0331	8
157.9993	55
160.9178	764
182.0005	9
184.9338	999
199.0537	68
