Mass spectrum: C16 Ceramide (d18:1/16:0); ESI-TOF; MS2; CE: 0.6458333;  [M+H]+
Name: C16 Ceramide (d18:1/16:0)
Class: NA
Formula: C34H67NO3
Exact mass: 537.51210
SMILES: [H]OC([H])([H])C([H])(N([H])C(=O)C([H])([H])C([H])([H])C([H])([H])C([H])([H])C([H])([H])C([H])([H])C([H])([H])C([H])([H])C([H])([H])C([H])([H])C([H])([H])C([H])([H])C([H])([H])C([H])([H])C([H])([H])[H])C([H])(O[H])C([H])=C([H])C([H])([H])C([H])([H])C([H])([H])C([H])([H])C([H])([H])C([H])([H])C([H])([H])C([H])([H])C([H])([H])C([H])([H])C([H])([H])C([H])([H])C([H])([H])[H]
InChI: InChI=1S/C34H67NO3/c1-3-5-7-9-11-13-15-17-19-21-23-25-27-29-33(37)32(31-36)35-34(38)30-28-26-24-22-20-18-16-14-12-10-8-6-4-2/h27,29,32-33,36-37H,3-26,28,30-31H2,1-2H3,(H,35,38)
Instrument: waters xevo g2 TOF
Instrument type: ESI-TOF
Ms type: MS2
Ion mode: POSITIVE
Ionization: ESI
Collision energy: 0.6458333
Column name: Acquity CSHC18
Retention time: 10.807 min
Base peak: 538.52010
Precursor m/z: 538.52010
Precursor type: [M+H]+
m/z	relative intensity
252.2694	103
253.2732	19
256.265	10
264.2692	999
264.7275	23
265.2726	214
266.2755	20
270.727	19
282.2797	135
283.2835	14
284.2954	4
294.2117	22
320.2254	25
321.2316	4
330.1223	6
336.2011	4
405.1361	4
490.4991	10
502.4984	43
503.5007	15
520.5091	385
521.5129	139
522.5158	23
523.5271	6
538.52	48
539.5222	18
