Mass spectrum: Acanthospermolid, 8-ß-tigloyloxy-14-oxo; LC-ESI-ITFT; MS2; CE: 50eV;  [M+H]+
Name: Acanthospermolid, 8-ß-tigloyloxy-14-oxo
Class: Sesquiterpenelactone; Melampolide
Formula: C20H24O5
Exact mass: 344.1624
SMILES: C\C=C(/C)C(=O)O[C@@H]1CC(=CCCC(C)=C[C@H]2OC(=O)C(=C)[C@H]12)C=O
InChI: InChI=1S/C20H24O5/c1-5-13(3)19(22)24-17-10-15(11-21)8-6-7-12(2)9-16-18(17)14(4)20(23)25-16/h5,8-9,11,16-18H,4,6-7,10H2,1-3H3/b12-9?,13-5+,15-8?/t16-,17-,18+/m1/s1
Instrument: Q Exactive Plus, ThermoFisher Scientific
Instrument type: LC-ESI-ITFT
Ms type: MS2
Ion mode: POSITIVE
Ionization: ESI
Collision energy: 50eV
Column name: Acquity CSHC18
Retention time: 8.524 min
Base peak: 345.1698
Precursor m/z: 345.1698
Precursor type: [M+H]+
Precursor intensity: 91510860
m/z	relative intensity
50.8189	33
51.3623	31
55.055	71
70.4528	38
70.4562	74
76.989	32
83.0496	999
95.5503	36
129.0709	41
131.0857	59
163.0755	49
168.9246	33
171.1176	85
173.0963	38
181.1005	60
199.112	381
201.0926	54
217.1209	75
227.1049	324
245.1166	356
309.1467	72
345.1717	215
