Mass spectrum: D-Tryptophan; LC-ESI-ITFT; MS2; CE: 40;  [M-H]-
Name: D-Tryptophan
Class: Organoheterocyclic compounds; Indoles and derivatives; Indolyl carboxylic acids and derivatives
Formula: C11H12N2O2
Exact mass: 204.08988
SMILES: N[C@H](CC1=CNC2=C1C=CC=C2)C(O)=O
InChI: InChI=1S/C11H12N2O2/c12-9(11(14)15)5-7-6-13-10-4-2-1-3-8(7)10/h1-4,6,9,13H,5,12H2,(H,14,15)/t9-/m1/s1
Instrument: Thermo Scientific Q-Exactive Focus
Instrument type: LC-ESI-ITFT
Ms type: MS2
Ion mode: NEGATIVE
Ionization: ESI
Collision energy: 40
Column name: Acquity CSHC18
Retention time: 1.474 min
Base peak: 203.08260
Precursor m/z: 203.08260
Precursor type: [M-H]-
m/z	relative intensity
74.0235	40
77.1169	21
93.5858	19
95.4394	19
105.9052	18
113.9426	21
116.0494	999
124.4329	18
142.065	81
142.3619	20
