Mass spectrum: N-Acetylgalactosamine; ESI-TOF; MS2; CE: 6.0000000;  [M+H]+
Name: N-Acetylgalactosamine
Class: NA
Formula: C8H15NO6
Exact mass: 221.08994
SMILES: CC(=O)NC1C(O)OC(CO)C(O)C1O
InChI: InChI=1S/C8H15NO6/c1-3(11)9-5-7(13)6(12)4(2-10)15-8(5)14/h4-8,10,12-14H,2H2,1H3,(H,9,11)
Instrument: waters xevo g2 TOF
Instrument type: ESI-TOF
Ms type: MS2
Ion mode: POSITIVE
Ionization: ESI
Collision energy: 6.0000000
Column name: Acquity CSHC18
Retention time: 0.570 min
Base peak: 222.09794
Precursor m/z: 222.09794
Precursor type: [M+H]+
m/z	relative intensity
96.9611	23
96.9613	22
111.0209	5
126.0553	398
130.0082	15
130.0083	17
137.988	191
138.0552	400
139.9638	7
141.9591	196
144.0657	404
168.066	94
169.0064	21
186.076	832
187.0796	52
188.0811	6
204.0869	999
205.0895	76
215.9944	20
222.0974	126
223.102	10
241.071	20
244.0797	851
245.0833	55
257.0208	15
287.8909	8
303.0029	34
321.0162	18
322.0228	6
351.6162	8
376.0593	10
449.1963	26
465.1696	185
466.1744	28
496.0977	52
497.1052	18
