Mass spectrum: Vitexin 2''-acetate; LC-ESI-QTOF; MS2; CE: 20-40eV;  [M-H]-
Name: Vitexin 2''-acetate
Class: Flavonoid C- glycosides
Formula: C23H22O11
Exact mass: 474.1162
SMILES: CC(=O)OC1(C(C(C(CO)(OC1(C2=C(C=C(C=3C(C=C(C4=CC=C(C=C4)O)OC32)=O)O)O)[H])[H])(O)[H])(O)[H])[H]
InChI: InChI=1S/C23H22O11/c1-9(25)32-23-20(31)19(30)16(8-24)34-22(23)18-13(28)6-12(27)17-14(29)7-15(33-21(17)18)10-2-4-11(26)5-3-10/h2-7,16,19-20,22-24,26-28,30-31H,8H2,1H3
Instrument: Impact II, Bruker; Dionex 3000, Thermo Scientific
Instrument type: LC-ESI-QTOF
Ms type: MS2
Ion mode: POSITIVE
Ionization: ESI
Collision energy: 20-40eV
Column name: Acquity CSHC18
Retention time: 5.613 min
Base peak: 473.1097
Precursor m/z: 473.1097
Precursor type: [M-H]-
Precursor intensity: 284774.5
m/z	relative intensity
119.0291	5
163.0216	7
175.0232	7
177.0371	7
187.0212	7
251.0536	7
252.0492	7
292.8828	8
293.0246	8
293.1473	8
293.3708	8
293.5723	8
293.7061	9
294.0706	9
294.4724	9
295.039	10
412.8334	10
412.9397	19
413.2524	126
413.3622	232
413.6632	999
