Mass spectrum: Glutamic acid; LC-ESI-QTOF; MS2; CE: 10;  [M-H]-
Name: Glutamic acid
Class: NA
Formula: C5H9NO4
Exact mass: 147.0532
SMILES: C(CC(=O)O)C(C(=O)O)N
InChI: InChI=1S/C5H9NO4/c6-3(5(9)10)1-2-4(7)8/h3H,1-2,6H2,(H,7,8)(H,9,10)
Instrument: impact II
Instrument type: LC-ESI-QTOF
Ms type: MS2
Ion mode: NEGATIVE
Ionization: ESI
Collision energy: 10
Column name: Acquity CSHC18
Retention time: 1.877 min
Base peak: 146.0462
Precursor m/z: 146.0462
Precursor type: [M-H]-
m/z	relative intensity
102.0564	999
128.0357	362
146.0464	238
