Mass spectrum: Tetrachlorobisphenol A; LC-ESI-ITFT; MS2; CE: 40;  [M-H]-
Name: Tetrachlorobisphenol A
Class: NA
Formula: C15H12Cl4O2
Exact mass: 363.95914
SMILES: CC(C)(C1=CC(=C(C(=C1)Cl)O)Cl)C2=CC(=C(C(=C2)Cl)O)Cl
InChI: InChI=1S/C15H12Cl4O2/c1-15(2,7-3-9(16)13(20)10(17)4-7)8-5-11(18)14(21)12(19)6-8/h3-6,20-21H,1-2H3
Instrument: Thermo Scientific Q-Exactive Focus
Instrument type: LC-ESI-ITFT
Ms type: MS2
Ion mode: NEGATIVE
Ionization: ESI
Collision energy: 40
Column name: Acquity CSHC18
Retention time: 1.475 min
Base peak: 362.95187
Precursor m/z: 362.95187
Precursor type: [M-H]-
m/z	relative intensity
124.9788	165
200.9872	621
211.9794	134
215.9976	93
223.9796	139
232.9561	72
247.9799	999
251.9747	166
283.9566	209
299.9514	85
