Mass spectrum: Guanosine; LC-ESI-ITFT; MS2; CE: 40;  [M+H]+
Name: Guanosine
Class: Nucleosides, nucleotides, and analogues; Purine nucleosides
Formula: C10H13N5O5
Exact mass: 283.09167
SMILES: NC1=NC2=C(N=CN2[C@@H]2O[C@H](CO)[C@@H](O)[C@H]2O)C(=O)N1
InChI: InChI=1S/C10H13N5O5/c11-10-13-7-4(8(19)14-10)12-2-15(7)9-6(18)5(17)3(1-16)20-9/h2-3,5-6,9,16-18H,1H2,(H3,11,13,14,19)/t3-,5-,6-,9-/m1/s1
Instrument: Thermo Scientific Q-Exactive Focus
Instrument type: LC-ESI-ITFT
Ms type: MS2
Ion mode: POSITIVE
Ionization: ESI
Collision energy: 40
Column name: Acquity CSHC18
Retention time: 1.464 min
Base peak: 284.09894
Precursor m/z: 284.09894
Precursor type: [M+H]+
m/z	relative intensity
57.0341	15
82.0404	10
109.0512	31
110.0352	197
128.0456	81
134.0462	22
135.0302	339
136.0143	11
152.0568	999
153.0407	573
