Mass spectrum: Rosmarinic acid; LC-ESI-QTOF; MS2; CE: 15.00;  [M-C9H8O4-H2O+H]+
Name: Rosmarinic acid
Class: NA
Formula: C18H16O8
Exact mass: 360.0845
SMILES: C1=CC(=C(C=C1CC(C(=O)O)OC(=O)C=CC2=CC(=C(C=C2)O)O)O)O
InChI: InChI=1S/C18H16O8/c19-12-4-1-10(7-14(12)21)3-6-17(23)26-16(18(24)25)9-11-2-5-13(20)15(22)8-11/h1-8,16,19-22H,9H2,(H,24,25)
Instrument: Bruker MicrOTOF-Q
Instrument type: LC-ESI-QTOF
Ms type: MS2
Ion mode: POSITIVE
Ionization: ESI
Collision energy: 15.00
Column name: Acquity CSHC18
Retention time: NA
Base peak: 163.0390
Precursor m/z: 163.0390
Precursor type: [M-C9H8O4-H2O+H]+
m/z	relative intensity
117.0299	133
133.0326	21
134.0318	79
135.0417	872
136.0489	94
139.0389	243
145.0285	463
146.0307	72
153.0537	51
163.0381	999
164.0419	43
181.0396	32
