Mass spectrum: Ginsenoside F3; LC-ESI-QFT; MS2; CE: 15,30,45 (NCE);  [M+Na]+
Name: Ginsenoside F3
Class: NA
Formula: C41H70O13
Exact mass: 770.4816
SMILES: CC(C)=CCCC(C)(OC1OC(COC2OCC(O)C(O)C2O)C(O)C(O)C1O)C1CCC2(C)C1C(O)CC1C3(C)CCC(O)C(C)(C)C3C(O)CC21C
InChI: InChI=1S/C41H70O13/c1-20(2)10-9-13-41(8,54-36-33(50)31(48)30(47)25(53-36)19-52-35-32(49)29(46)24(44)18-51-35)21-11-15-39(6)28(21)22(42)16-26-38(5)14-12-27(45)37(3,4)34(38)23(43)17-40(26,39)7/h10,21-36,42-50H,9,11-19H2,1-8H3
Instrument: QE Focus, Thermo Scientfic; UPLC I-Class, Waters
Instrument type: LC-ESI-QFT
Ms type: MS2
Ion mode: POSITIVE
Ionization: ESI
Collision energy: 15,30,45 (NCE)
Column name: Acquity CSHC18
Retention time: 2.773 min
Base peak: 793.4703
Precursor m/z: 793.4703
Precursor type: [M+Na]+
Precursor intensity: 10320530
m/z	relative intensity
56.8404	2
70.0556	3
77.4234	3
81.1407	3
122.091	3
172.114	3
203.0525	4
312.0708	3
335.0948	115
481.3644	7
720.6998	3
793.4702	999
