Mass spectrum: Homovanillic acid; ESI-TOF; MS2; CE: 6.0000000;  [M+H]+
Name: Homovanillic acid
Class: NA
Formula: C9H10O4
Exact mass: 182.05791
SMILES: COC1=CC(CC(O)=O)=CC=C1O
InChI: InChI=1S/C9H10O4/c1-13-8-4-6(5-9(11)12)2-3-7(8)10/h2-4,10H,5H2,1H3,(H,11,12)
Instrument: waters xevo g2 TOF
Instrument type: ESI-TOF
Ms type: MS2
Ion mode: POSITIVE
Ionization: ESI
Collision energy: 6.0000000
Column name: Acquity CSHC18
Retention time: 2.054 min
Base peak: 183.06591
Precursor m/z: 183.06591
Precursor type: [M+H]+
m/z	relative intensity
107.05	11
109.0473	15
114.0142	10
122.0373	12
125.0245	20
126.0261	2
127.9803	29
129.0347	4
135.0449	7
135.9939	1
137.108	999
138.0641	183
139.066	31
149.0241	13
150.0313	1
153.0558	14
157.55	2
158.0033	4
159.0424	25
160.0472	3
164.0326	3
166.0582	1
167.0522	10
168.0656	1
173.0295	4
179.0372	9
181.0198	22
182.0128	52
183.057	18
189.0454	9
191.9878	2
192.995	6
197.0217	10
201.0602	1
202.041	293
202.5419	56
203.0367	23
204.04	25
205.0476	207
206.0651	9
208.9903	2
210.058	3
217.0469	2
217.9905	5
221.0129	2
222.5518	8
224.0832	1
233.0148	2
234.0363	19
235.0538	35
236.0274	62
241.0773	1
253.0617	2
257.0996	161
258.058	8
259.0987	6
262.0406	4
267.0314	8
269.0634	16
269.5607	8
271.0968	156
272.1001	26
273.1328	52
277.087	1
278.0111	16
281.9828	40
283.0224	6
285.0694	6
287.0915	12
288.101	1
291.0532	11
291.5571	2
292.0612	76
292.563	21
293.0747	16
295.0608	19
296.0618	3
299.045	9
300.0514	3
301.0712	63
302.0756	12
303.0691	4
307.0688	2
311.0744	1
315.0517	38
316.064	16
317.1021	869
318.084	60
319.1084	28
323.0498	6
325.07	3
326.0508	1
327.0647	122
328.065	37
331.0668	9
333.0976	5
336.0736	2
337.0744	2
338.0795	3
339.0838	114
340.0889	21
341.0534	4
345.115	31
346.0995	17
347.11	16
355.0768	24
356.0832	4
357.0791	26
359.05	14
359.5807	4
360.0535	4
361.0611	26
362.0995	66
363.1338	33
364.109	12
369.094	20
370.1024	14
371.0815	68
372.0718	20
373.0452	6
374.0474	36
375.0475	9
377.0521	9
379.0516	3
380.1199	9
381.1037	4
382.0819	31
382.5835	12
383.0746	26
384.0808	26
385.0895	514
386.0496	55
387.0922	31
388.0232	4
389.0842	8
390.084	2
399.0493	5
401.0879	21
402.06	5
403.0508	71
404.0363	12
405.0749	2
408.0848	4
409.0875	10
414.0403	5
415.1314	36
416.0683	26
417.0301	17
418.0345	458
419.0747	177
420.0408	70
421.0919	31
422.0405	10
423.0387	13
424.0405	5
437.1119	11
438.12	2
441.1295	1
443.1303	2
444.2636	1
445.1095	15
446.1155	3
449.1009	5
449.6022	1
450.0629	6
451.13	4
452.114	4
453.0838	34
454.0875	7
455.0837	17
457.0783	4
458.0582	2
459.0744	6
463.0992	2
472.1021	7
472.6073	3
473.1048	1
479.1129	5
482.107	1
484.1205	11
485.1045	6
495.1281	26
496.1323	6
497.175	22
498.1478	19
499.1519	3
503.3019	1
507.1274	24
519.1248	11
520.1269	4
521.1401	4
525.1365	26
526.2158	4
527.1444	2
539.0902	2
540.1266	4
541.1286	10
542.1397	4
543.1467	9
549.1395	5
550.1458	1
551.1502	15
552.115	6
554.0861	14
560.1763	1
562.1257	3
563.1232	18
563.6334	8
565.1309	51
566.1338	15
567.1395	8
568.1309	1
570.1362	7
571.1129	21
572.1418	16
583.1086	11
584.0972	7
585.1395	7
586.1286	12
589.1238	4
594.0825	3
596.0908	19
597.0782	16
598.0765	112
599.0816	74
600.092	192
601.093	39
602.126	10
603.1243	3
604.074	1
631.1735	2
634.1337	3
652.1509	1
653.2105	2
653.6534	4
677.1828	4
678.1927	1
679.1993	1
701.1786	2
705.1823	5
706.193	2
707.1928	2
720.2085	1
725.2051	3
729.1622	1
731.1865	4
732.1591	2
733.1625	10
734.1234	2
737.1812	1
743.6731	2
744.1787	5
745.1813	5
747.1827	46
748.1927	18
749.1854	11
750.1463	1
751.1757	6
752.1738	2
763.1535	7
765.1484	2
774.1212	1
775.1187	1
776.1383	6
777.1932	17
778.1635	12
779.1679	8
780.1309	8
781.1277	7
782.1287	2
807.2101	4
808.212	1
835.2081	1
838.0708	1
849.0683	1
850.0788	1
913.2473	1
925.2172	1
926.2061	1
927.2383	4
928.2205	1
959.1608	1
960.176	1
1013.1063	1
1015.1072	2
1017.1107	5
1018.1151	2
1111.2563	1
1140.225	3
1141.2227	3
