Mass spectrum: Glucobrassicin; LC-ESI-QTOF; MS2; CE: 20.18;  [M-O3S+H]+
Name: Glucobrassicin
Class: NA
Formula: C16H20N2O9S2
Exact mass: 448.0610
SMILES: C1=CC=C2C(=C1)C(=CN2)CC(=NOS(=O)(=O)O)SC3C(C(C(C(O3)CO)O)O)O
InChI: InChI=1S/C16H20N2O9S2/c19-7-11-13(20)14(21)15(22)16(26-11)28-12(18-27-29(23,24)25)5-8-6-17-10-4-2-1-3-9(8)10/h1-4,6,11,13-17,19-22H,5,7H2,(H,23,24,25)
Instrument: Bruker MicrOTOF-Q
Instrument type: LC-ESI-QTOF
Ms type: MS2
Ion mode: POSITIVE
Ionization: ESI
Collision energy: 20.18
Column name: Acquity CSHC18
Retention time: NA
Base peak: 369.1115
Precursor m/z: 369.1115
Precursor type: [M-O3S+H]+
m/z	relative intensity
117.0599	10
127.0399	14
130.0646	791
130.1604	3
131.0685	91
132.0723	10
144.0791	6
145.071	16
146.0602	12
148.0219	13
149.0291	55
155.0582	37
156.067	82
157.0694	13
162.037	357
163.0411	29
164.0337	12
170.0635	6
172.0755	6
173.0298	209
174.0368	683
175.0388	96
176.0361	22
187.0324	8
189.0479	153
190.0546	338
191.0568	31
205.0405	7
207.0583	999
208.0615	136
209.0567	50
