Mass spectrum: 16:0 SM (d18:1/16:0); ESI-TOF; MS2; CE: 6.0000000;  [M+H]+
Name: 16:0 SM (d18:1/16:0)
Class: NA
Formula: C39H79N2O6P
Exact mass: 702.56757
SMILES: [H]OC([H])(C([H])=C([H])C([H])([H])C([H])([H])C([H])([H])C([H])([H])C([H])([H])C([H])([H])C([H])([H])C([H])([H])C([H])([H])C([H])([H])C([H])([H])C([H])([H])C([H])([H])[H])C([H])(N([H])C(=O)C([H])([H])C([H])([H])C([H])([H])C([H])([H])C([H])([H])C([H])([H])C([H])([H])C([H])([H])C([H])([H])C([H])([H])C([H])([H])C([H])([H])C([H])([H])C([H])([H])C([H])([H])[H])C([H])([H])OP(=O)([O-])OC([H])([H])C([H])([H])[N+](C([H])([H])[H])(C([H])([H])[H])C([H])([H])[H]
InChI: InChI=1S/C39H79N2O6P/c1-6-8-10-12-14-16-18-20-22-24-26-28-30-32-38(42)37(36-47-48(44,45)46-35-34-41(3,4)5)40-39(43)33-31-29-27-25-23-21-19-17-15-13-11-9-7-2/h30,32,37-38,42H,6-29,31,33-36H2,1-5H3,(H-,40,43,44,45)
Instrument: waters xevo g2 TOF
Instrument type: ESI-TOF
Ms type: MS2
Ion mode: POSITIVE
Ionization: ESI
Collision energy: 6.0000000
Column name: Acquity CSHC18
Retention time: 10.688 min
Base peak: 703.57557
Precursor m/z: 703.57557
Precursor type: [M+H]+
m/z	relative intensity
144.0196	3
145.0133	1
184.0738	29
305.1393	3
332.2127	1
362.2593	1
363.2745	2
370.2463	23
371.2649	34
371.7667	185
372.7741	7
373.2621	4
378.7494	1
379.2518	6
380.2522	3
385.1738	1
413.2416	5
413.7408	2
435.2767	1
473.2194	1
495.0155	5
500.5116	1
515.412	2
538.3996	15
541.3889	3
542.3732	42
542.8744	28
544.3734	20
546.3703	1
548.4033	1
558.3807	1
579.3831	1
587.3817	24
589.3908	1
601.3682	2
628.4672	5
628.9704	4
629.9726	1
644.4628	4
644.9632	3
645.4641	1
703.5744	999
704.5784	482
