Mass spectrum: Naringenin-7-O-glucoside; LC-ESI-QTOF; MS2; CE: 50eV;  [M-H]-
Name: Naringenin-7-O-glucoside
Class: Flavanone
Formula: C21H22O10
Exact mass: 434.1213
SMILES: C1C(OC2=CC(=CC(=C2C1=O)O)OC3C(C(C(C(O3)CO)O)O)O)C4=CC=C(C=C4)O
InChI: InChI=1S/C21H22O10/c22-8-16-18(26)19(27)20(28)21(31-16)29-11-5-12(24)17-13(25)7-14(30-15(17)6-11)9-1-3-10(23)4-2-9/h1-6,14,16,18-24,26-28H,7-8H2
Instrument: TIMS-TOF Pro, Bruker Daltonik; Elute UHPLC System, Bruker Daltonik
Instrument type: LC-ESI-QTOF
Ms type: MS2
Ion mode: NEGATIVE
Ionization: ESI
Collision energy: 50eV
Column name: Acquity CSHC18
Retention time: 5.646 min
Base peak: 433.1055
Precursor m/z: 433.1055
Precursor type: [M-H]-
Precursor intensity: 57202.89
m/z	relative intensity
63.0211	1
65.0029	24
66.0059	1
69.0336	1
83.0126	18
84.0169	2
91.6051	1
93.0337	22
97.0283	1
101.0815	1
107.0124	88
108.0146	4
108.9918	2
119.0293	215
120.0525	15
121.0271	2
125.0213	3
131.0115	1
135.0065	2
136.0123	1
141.0225	1
145.0276	4
146.2568	1
147.2022	1
149.0213	1
150.9627	73
151.4914	1
152.0041	12
153.0069	2
153.1805	1
164.0067	1
165.0138	2
175	3
177.0166	11
178.0228	1
187.0351	1
215.1803	1
254.2755	1
271.0572	999
271.2463	1
271.3948	1
271.6237	2
272.0407	50
273.0624	9
295.0537	1
313.0588	5
314.0709	1
433.1055	37
