Mass spectrum: 2-METHYLMALEATE; LC-ESI-QTOF; MS2; CE: 40;  [M-H]-
Name: 2-METHYLMALEATE
Class: NA
Formula: C5H6O4
Exact mass: 130.02661
SMILES: C\C(=C\C(O)=O)C(O)=O
InChI: InChI=1S/C5H6O4/c1-3(5(8)9)2-4(6)7/h2H,1H3,(H,6,7)(H,8,9)/b3-2-
Instrument: Agilent 6530Â Q-TOF LC/MS
Instrument type: LC-ESI-QTOF
Ms type: MS2
Ion mode: NEGATIVE
Ionization: ESI
Collision energy: 40
Column name: NA
Retention time: 0.200 min
Base peak: 129.02101
Precursor m/z: 129.02101
Precursor type: [M-H]-
Precursor intensity: 144
m/z	relative intensity
49.1236	88
52.3854	147
52.769	154
57.0988	550
57.2624	616
74.4466	617
97.0954	785
103.4308	938
117.4188	999
