Mass spectrum: Cytosine; LC-ESI-QTOF; MS2; CE: 15.00;  [2M+H]+
Name: Cytosine
Class: NA
Formula: C4H5N3O
Exact mass: 111.0433
SMILES: C1=C(NC(=O)N=C1)N
InChI: InChI=1S/C4H5N3O/c5-3-1-2-6-4(8)7-3/h1-2H,(H3,5,6,7,8)
Instrument: Bruker MicrOTOF-Q
Instrument type: LC-ESI-QTOF
Ms type: MS2
Ion mode: POSITIVE
Ionization: ESI
Collision energy: 15.00
Column name: Acquity CSHC18
Retention time: NA
Base peak: 223.0938
Precursor m/z: 223.0938
Precursor type: [2M+H]+
m/z	relative intensity
111.9847	8
112.0474	999
112.1806	5
112.3785	5
112.5808	4
113.0481	75
132.1209	4
140.9658	5
156.0043	4
178.0103	5
185.9463	5
225.0101	7
411.1819	4
