Mass spectrum: Agmatine; LC-ESI-ITFT; MS2; CE: 60;  [M+H]+
Name: Agmatine
Class: Organic nitrogen compounds; Organonitrogen compounds; Guanidines
Formula: C5H14N4
Exact mass: 130.12185
SMILES: NCCCCNC(N)=N
InChI: InChI=1S/C5H14N4/c6-3-1-2-4-9-5(7)8/h1-4,6H2,(H4,7,8,9)
Instrument: Thermo Scientific Q-Exactive Focus
Instrument type: LC-ESI-ITFT
Ms type: MS2
Ion mode: POSITIVE
Ionization: ESI
Collision energy: 60
Column name: Acquity CSHC18
Retention time: 1.435 min
Base peak: 131.12912
Precursor m/z: 131.12912
Precursor type: [M+H]+
m/z	relative intensity
55.0296	773
55.9349	999
57.9353	752
62.1388	515
70.1685	519
78.4186	518
90.2941	617
111.6344	541
113.6079	515
128.0143	565
