Mass spectrum: Erythritol; ESI-TOF; MS2; CE: 0.6458333;  [M+H]+
Name: Erythritol
Class: NA
Formula: C4H10O4
Exact mass: 122.05791
SMILES: OCC(O)C(O)CO
InChI: InChI=1S/C4H10O4/c5-1-3(7)4(8)2-6/h3-8H,1-2H2
Instrument: waters xevo g2 TOF
Instrument type: ESI-TOF
Ms type: MS2
Ion mode: POSITIVE
Ionization: ESI
Collision energy: 0.6458333
Column name: Acquity CSHC18
Retention time: 0.561 min
Base peak: 123.06591
Precursor m/z: 123.06591
Precursor type: [M+H]+
m/z	relative intensity
81.0102	108
81.9505	68
87.045	50
89.9784	810
99.9614	543
102.0927	41
105.0555	3
109.9467	45
111.9602	87
115.9558	154
116.9491	133
117.9929	69
120.0267	3
123.0656	3
124.0289	43
128.0153	801
129.0184	212
129.9521	11
130.9671	3
131.5349	3
133.0342	69
140.9922	3
142.0401	130
142.5418	3
142.9939	3
144.0043	72
145.0282	62
146.0091	965
146.9698	89
149.5294	3
150.0214	3
151.0265	3
152.0244	3
154.9675	3
155.9621	42
157.9667	295
160.9829	132
162.9914	3
165.0342	124
171.9832	3
173.079	3
174.9687	3
175.9776	3
176.9843	999
178.992	19
183.9818	3
186.9929	3
189.984	3
191.9936	3
193.0303	3
193.9874	172
194.9942	129
197.4993	3
201.9942	3
207.0584	90
208.004	3
209.009	3
217.0039	3
218.0074	3
220.0036	179
221.0196	3
221.9828	3
224.9913	3
232.0034	3
239.0067	36
251.0409	69
269.0818	392
270.0861	3
271.0919	3
289.0409	3
294.0369	3
296.0418	3
297.0453	3
298.0355	3
299.0417	178
300.045	3
301.0436	3
302.1951	3
303.0394	3
307.0393	3
346.0645	3
352.9617	3
406.981	3
473.0037	3
