Mass spectrum: Prostaglandin F2-alpha-1-glyceryl ester; ESI-TOF; MS2; CE: 6.0000000;  [M+H]+
Name: Prostaglandin F2-alpha-1-glyceryl ester
Class: NA
Formula: C23H40O7
Exact mass: 428.27740
SMILES: CCCCCC(/C=C/C1C(CC(C1C/C=C/CCCC(=O)OCC(CO)O)O)O)O
InChI: InChI=1S/C23H40O7/c1-2-3-6-9-17(25)12-13-20-19(21(27)14-22(20)28)10-7-4-5-8-11-23(29)30-16-18(26)15-24/h4,7,12-13,17-22,24-28H,2-3,5-6,8-11,14-16H2,1H3/b7-4+,13-12+
Instrument: waters xevo g2 TOF
Instrument type: ESI-TOF
Ms type: MS2
Ion mode: POSITIVE
Ionization: ESI
Collision energy: 6.0000000
Column name: Acquity CSHC18
Retention time: 3.499 min
Base peak: 429.28540
Precursor m/z: 429.28540
Precursor type: [M+H]+
m/z	relative intensity
121.1022	16
126.0713	42
149.0618	93
159.0552	17
167.079	230
170.0854	17
177.1628	146
183.0987	48
184.8859	14
188.0982	14
190.1068	8
195.1738	20
203.1011	46
203.6039	61
204.5954	7
207.1045	428
207.6059	54
209.049	24
215.0864	6
216.1099	117
216.6106	243
219.1835	13
223.1341	45
225.1151	334
225.6158	531
226.1485	51
234.1196	163
234.6228	34
236.1709	42
244.083	14
245.1137	29
247.205	91
250.1782	22
255.2089	24
257.1913	56
275.1999	21
279.0532	39
282.1368	7
283.2066	411
284.2114	76
285.2247	7
297.1391	44
301.2171	441
302.2224	95
303.2186	10
307.1112	4
319.2237	77
320.2318	9
321.2394	24
339.253	123
340.2551	15
347.1272	10
349.2366	157
375.2537	999
376.2564	461
377.2622	61
378.2637	7
379.1396	18
390.1466	45
391.1466	8
392.1646	26
393.2637	167
394.2673	276
404.2809	11
411.2746	163
412.2768	36
420.1578	37
421.1711	49
423.1667	11
430.7455	3
