Mass spectrum: CITRULLINE; LC-ESI-QTOF; MS2; CE: 40;  [M+H]+
Name: CITRULLINE
Class: NA
Formula: C6H13N3O3
Exact mass: 175.0957
SMILES: N[C@@H](CCCNC(N)=O)C(O)=O
InChI: InChI=1S/C6H13N3O3/c7-4(5(10)11)2-1-3-9-6(8)12/h4H,1-3,7H2,(H,10,11)(H3,8,9,12)/t4-/m0/s1
Instrument: Agilent 6530Â Q-TOF LC/MS
Instrument type: LC-ESI-QTOF
Ms type: MS2
Ion mode: POSITIVE
Ionization: ESI
Collision energy: 40
Column name: NA
Retention time: 0.200 min
Base peak: 176.10268
Precursor m/z: 176.10268
Precursor type: [M+H]+
Precursor intensity: 168.5
m/z	relative intensity
40.9787	10
43.0532	145
43.102	6
43.1382	8
43.3341	6
43.7897	24
43.954	103
43.9889	5
44.1556	27
44.3782	37
44.3983	6
44.4197	4
47.6564	8
48.2976	4
52.1288	37
54.2709	10
57.0196	6
59.8061	26
65.3336	17
67.8032	13
69.2325	20
69.3942	16
70.0658	999
70.2936	21
70.3731	21
70.4047	9
71.6601	4
72.1804	86
79.3514	8
83.5983	1
91.1349	21
91.8074	37
93.3205	15
95.5634	31
95.5926	12
97.5884	28
100.2675	30
101.1668	5
111.8736	20
112.5979	5
116.8446	28
126.0483	23
127.8508	9
147.0378	8
154.1821	9
156.5207	30
165.115	27
