Mass spectrum: Quercitrin; LC-ESI-ITFT; MS2; CE: 0.3;  [M-H]-
Name: Quercitrin
Class: flavonol glycosides
Formula: C21H20O11
Exact mass: 448.1006
SMILES: CC1C(C(C(C(O1)OC2=C(OC3=CC(=CC(=C3C2=O)O)O)C4=CC(=C(C=C4)O)O)O)O)O
InChI: InChI=1S/C21H20O11/c1-7-15(26)17(28)18(29)21(30-7)32-20-16(27)14-12(25)5-9(22)6-13(14)31-19(20)8-2-3-10(23)11(24)4-8/h2-7,15,17-18,21-26,28-29H,1H3
Instrument: LTQ-Orbitrap XL hybrid mass spectrometer (Thermo Scientific)
Instrument type: LC-ESI-ITFT
Ms type: MS2
Ion mode: NEGATIVE
Ionization: ESI
Collision energy: 0.3
Column name: Acquity CSHC18
Retention time: 5.766 min
Base peak: 447.0925
Precursor m/z: 447.0925
Precursor type: [M-H]-
Precursor intensity: 21910200
m/z	relative intensity
117.3061	1
122.6138	1
132.0389	1
139.7665	1
145.818	1
151.0042	5
160.2828	1
167.0872	3
178.094	1
178.9985	10
181.6539	1
183.9919	1
184.2005	1
189.4171	1
189.8726	1
192.9449	1
212.5032	1
215.5728	1
220.5812	1
224.573	1
227.4988	1
235.1813	1
235.7225	1
240.5316	1
243.7963	1
243.8208	1
249.7781	1
251.4172	1
251.7598	1
252.0501	1
253.822	1
255.2286	2
255.8513	1
257.3066	1
257.3369	1
257.4329	1
257.9069	2
258.2154	1
258.3614	1
258.9245	1
259.8429	2
260.4761	2
260.9288	2
261.4422	2
261.9023	1
262.2301	2
263.1319	1
263.3746	2
263.4579	1
265.7816	1
266.4159	1
266.4548	1
267.1857	2
268.1198	1
269.305	1
271.1736	1
273.0446	2
274.1592	1
274.697	1
275.5629	1
275.8195	1
276.3942	1
280.5604	1
283.0266	2
288.2471	1
296.9787	1
297.2893	1
297.7775	2
298.0252	2
298.7746	9
298.8182	2
299.5235	4
299.8287	2
300.0273	242
300.6956	2
300.7432	3
300.8053	2
300.8189	2
300.8534	5
300.8844	5
300.8978	3
300.9158	6
300.9305	5
300.9461	5
300.9626	7
300.9784	6
301.0348	999
301.0876	4
301.1049	7
301.12	6
301.1364	6
301.1492	3
301.1687	6
301.1995	4
301.2136	2
302.0376	18
302.2506	1
302.5538	2
303.3217	8
308.7389	1
309.3576	2
314.7411	1
316.4192	1
321.0613	2
321.2714	1
324.6495	2
330.7352	1
332.0769	1
332.961	1
338.5002	1
338.7635	2
340.1533	1
342.3035	1
343.044	11
343.9352	2
344.9542	1
349.3855	2
351.1342	2
352.7977	1
353.0061	2
353.6168	1
354.83	2
357.5737	2
367.2411	1
369.1032	1
380.0565	1
381.2154	1
396.0312	1
398.4104	2
401.811	1
408.4116	2
410.6988	2
415.32	2
416.9165	2
420.2586	2
422.1306	2
425.9473	1
429.0817	8
436.7524	2
439.2826	2
