Mass spectrum: 1,1-Dimethylbiguanide; ESI-TOF; MS2; CE: 0.6458333;  [M+H]+
Name: 1,1-Dimethylbiguanide
Class: NA
Formula: C4H11N5
Exact mass: 129.10145
SMILES: CN(C)C(=N)NC(N)=N
InChI: InChI=1S/C4H11N5/c1-9(2)4(7)8-3(5)6/h1-2H3,(H5,5,6,7,8)
Instrument: waters xevo g2 TOF
Instrument type: ESI-TOF
Ms type: MS2
Ion mode: POSITIVE
Ionization: ESI
Collision energy: 0.6458333
Column name: Acquity CSHC18
Retention time: 0.520 min
Base peak: 130.10945
Precursor m/z: 130.10945
Precursor type: [M+H]+
m/z	relative intensity
60.0566	135
68.0253	54
71.0612	999
72.0644	43
85.0516	516
86.053	14
88.0877	460
89.09	16
95.9736	2
97.9691	46
99.9706	9
114.0852	16
130.5426	47
138.9897	1
143.0022	2
152.0002	2
168.0101	13
179.9839	1
181.9993	8
183.0034	3
184.0272	25
185.0105	8
190.9345	1
197.0123	6
198.0158	5
199.1272	2
200.047	61
210.0314	29
211.0517	31
224.0217	33
225.043	27
226.0496	9
227.0581	15
228.0783	44
229.0806	11
252.0535	34
266.1055	3
267.0633	15
270.0997	69
271.1049	17
308.1262	10
312.1222	57
494.1354	10
623.2377	1
