Mass spectrum: Creatinine; LC-ESI-ITFT; MS2; CE: 100;  [M+H]+
Name: Creatinine
Class: Organic acids and derivatives; Carboxylic acids and derivatives; Amino acids, peptides, and analogues
Formula: C4H7N3O
Exact mass: 113.05891
SMILES: CN1CC(=O)NC1=N
InChI: InChI=1S/C4H7N3O/c1-7-2-3(8)6-4(7)5/h2H2,1H3,(H2,5,6,8)
Instrument: Thermo Scientific Q-Exactive Focus
Instrument type: LC-ESI-ITFT
Ms type: MS2
Ion mode: POSITIVE
Ionization: ESI
Collision energy: 100
Column name: Acquity CSHC18
Retention time: 1.690 min
Base peak: 114.06619
Precursor m/z: 114.06619
Precursor type: [M+H]+
m/z	relative intensity
59.0784	882
64.6548	846
68.405	864
78.4714	858
80.812	883
86.1066	891
90.9546	916
91.3354	839
121.7182	874
131.3082	999
