Mass spectrum: Pisiferol; ESI-QTOF; MS2; CE: -55V;  [M-H]-
Name: Pisiferol
Class: phenolic diterpene
Formula: C20H30O2
Exact mass: 302.2246
SMILES: CC(C)C(C(O)=C1)=CC2=C1C3(CO)C(CC2)C(C)(C)CCC3
InChI: InChI=1S/C20H30O2/c1-13(2)15-10-14-6-7-18-19(3,4)8-5-9-20(18,12-21)16(14)11-17(15)22/h10-11,13,18,21-22H,5-9,12H2,1-4H3
Instrument: TripleToF 5600, Sciex
Instrument type: ESI-QTOF
Ms type: MS2
Ion mode: NEGATIVE
Ionization: ESI
Collision energy: -55V
Column name: Acquity CSHC18
Retention time: 14.345 min
Base peak: 301.2192
Precursor m/z: 301.2192
Precursor type: [M-H]-
Precursor intensity: 131166.4
m/z	relative intensity
183.0818	7
213.1242	47
228.1557	22
243.184	178
269.1944	282
270.1958	48
271.2108	999
272.2159	278
299.2083	64
299.2693	20
301.2162	699
302.224	209
