Mass spectrum: (-)-linalool; APCI-ITFT; MS2; CE: HCD 90;  [M-H]-
Name: (-)-linalool
Class: NA
Formula: C10H18O
Exact mass: 154.13577
SMILES: CC(=CCCC(C)(C=C)O)C
InChI: InChI=1S/C10H18O/c1-5-10(4,11)8-6-7-9(2)3/h5,7,11H,1,6,8H2,2-4H3
Instrument: Orbitrap Elite
Instrument type: APCI-ITFT
Ms type: MS2
Ion mode: NEGATIVE
Ionization: APCI
Collision energy: HCD 90
Column name: Acquity CSHC18
Retention time: 0.066 min
Base peak: 153.12870
Precursor m/z: 153.12870
Precursor type: [M-H]-
Precursor intensity: 124888.5
m/z	relative intensity
55.1122	69
62.38	72
66.6162	70
77.0223	69
80.7984	75
104.61	74
122.0271	74
122.864	82
127.9855	70
134.0838	79
135.0802	67
153.0919	157
153.1283	999
