Mass spectrum: Spermidine; LC-ESI-QTOF; MS2; CE: 15.00;  [M+H]+
Name: Spermidine
Class: NA
Formula: C7H19N3
Exact mass: 145.1579
SMILES: C(CCNCCCN)CN
InChI: InChI=1S/C7H19N3/c8-4-1-2-6-10-7-3-5-9/h10H,1-9H2
Instrument: Bruker MicrOTOF-Q
Instrument type: LC-ESI-QTOF
Ms type: MS2
Ion mode: POSITIVE
Ionization: ESI
Collision energy: 15.00
Column name: Acquity CSHC18
Retention time: NA
Base peak: 146.1652
Precursor m/z: 146.1652
Precursor type: [M+H]+
m/z	relative intensity
112.1121	999
113.119	69
129.1413	326
146.1634	91
