Mass spectrum: Elaidoyl-L-carnitine hydrochloride; ESI-TOF; MS2; CE: 6.0000000;  [M+H]+
Name: Elaidoyl-L-carnitine hydrochloride
Class: NA
Formula: C25H47NO4
Exact mass: 425.35051
SMILES: O=C(CCCCCCC/C=C/CCCCCCCC)O[C@H](CC([O-])=O)C[N+](C)(C)C
InChI: InChI=1S/C25H47NO4/c1-5-6-7-8-9-10-11-12-13-14-15-16-17-18-19-20-25(29)30-23(21-24(27)28)22-26(2,3)4/h12-13,23H,5-11,14-22H2,1-4H3/b13-12+/t23-/m1/s1
Instrument: waters xevo g2 TOF
Instrument type: ESI-TOF
Ms type: MS2
Ion mode: POSITIVE
Ionization: ESI
Collision energy: 6.0000000
Column name: Acquity CSHC18
Retention time: 4.802 min
Base peak: 426.35851
Precursor m/z: 426.35851
Precursor type: [M+H]+
m/z	relative intensity
85.0297	999
269.2074	180
367.2856	351
368.289	97
389.2666	225
403.2625	259
425.2407	152
426.3574	987
427.3619	418
