Mass spectrum: alpha-Linolenoyl ethanolamide; LC-ESI-ITFT; MS2; CE: 10;  [M+H]+
Name: alpha-Linolenoyl ethanolamide
Class: Organic nitrogen compounds; Organonitrogen compounds; Amines
Formula: C20H35NO2
Exact mass: 321.26678
SMILES: CC\C=C/C\C=C/C\C=C/CCCCCCCC(=O)NCCO
InChI: InChI=1S/C20H35NO2/c1-2-3-4-5-6-7-8-9-10-11-12-13-14-15-16-17-20(23)21-18-19-22/h3-4,6-7,9-10,22H,2,5,8,11-19H2,1H3,(H,21,23)/b4-3-,7-6-,10-9-
Instrument: Thermo Scientific Q-Exactive Focus
Instrument type: LC-ESI-ITFT
Ms type: MS2
Ion mode: POSITIVE
Ionization: ESI
Collision energy: 10
Column name: Acquity CSHC18
Retention time: 0.348 min
Base peak: 322.27405
Precursor m/z: 322.27405
Precursor type: [M+H]+
m/z	relative intensity
62.0606	999
81.0702	32
95.0858	34
109.1013	30
200.1642	27
243.2104	44
261.2208	70
304.2629	40
305.2471	41
322.2736	442
