Mass spectrum: Fraxin; LC-ESI-ITFT; MS2; CE: 45eV;  [M+H]+
Name: Fraxin
Class: coumarin
Formula: C16H18O10
Exact mass: 370.0900
SMILES: COC1=C(C(=C2C(=C1)C=CC(=O)O2)OC3C(C(C(C(O3)CO)O)O)O)O
InChI: InChI=1S/C16H18O10/c1-23-7-4-6-2-3-9(18)25-14(6)15(11(7)20)26-16-13(22)12(21)10(19)8(5-17)24-16/h2-4,8,10,12-13,16-17,19-22H,5H2,1H3
Instrument: LTQ Orbitrap XL, Thermo Scientfic; Dionex Ultimate 300
Instrument type: LC-ESI-ITFT
Ms type: MS2
Ion mode: POSITIVE
Ionization: ESI
Collision energy: 45eV
Column name: Alltima C18
Retention time: 13.18 min
Base peak: 371.0967
Precursor m/z: 371.0967
Precursor type: [M+H]+
m/z	relative intensity
128.8865	4
174.9807	1
194.1272	2
209.0001	999
227.1653	6
322.9486	1
336.3441	8
354.34	116
