Mass spectrum: 15(R)-Pinane Thromboxane A2; ESI-TOF; MS2; CE: 6.0000000;  [M+H]+
Name: 15(R)-Pinane Thromboxane A2
Class: NA
Formula: C24H40O3
Exact mass: 376.29775
SMILES: CCCCC[C@@H](O)/C=C/[C@H]1C[C@H]2C[C@H](C2(C)C)[C@@H]1C/C=C\CCCC(O)=O
InChI: InChI=1S/C24H40O3/c1-4-5-8-11-20(25)15-14-18-16-19-17-22(24(19,2)3)21(18)12-9-6-7-10-13-23(26)27/h6,9,14-15,18-22,25H,4-5,7-8,10-13,16-17H2,1-3H3,(H,26,27)/b9-6-,15-14+/t18-,19-,20+,21+,22-/m0/s1
Instrument: waters xevo g2 TOF
Instrument type: ESI-TOF
Ms type: MS2
Ion mode: POSITIVE
Ionization: ESI
Collision energy: 6.0000000
Column name: Acquity CSHC18
Retention time: 6.787 min
Base peak: 377.30575
Precursor m/z: 377.30575
Precursor type: [M+H]+
m/z	relative intensity
81.0707	2
105.0709	2
109.1026	7
119.0861	5
127.0775	3
133.1025	8
149.1142	1
151.1499	1
161.1337	4
163.0624	6
165.163	2
169.1013	5
173.0899	1
175.1491	7
183.1169	1
185.128	3
187.1122	9
189.1646	4
195.1374	3
199.1258	8
201.1455	3
203.1787	5
211.1469	3
213.1639	2
217.1966	5
221.1522	4
223.1719	5
229.1573	6
231.2128	21
233.1918	3
235.1671	2
239.2377	2
243.1222	9
247.1696	12
249.1848	6
251.2012	15
261.1883	11
263.1997	6
271.2057	14
275.2012	22
277.2132	3
281.2269	7
285.2207	6
287.1326	4
289.2153	9
299.2357	24
300.2351	4
303.2325	25
313.2618	3
323.2719	12
324.2772	4
337.2723	5
341.284	93
342.2866	23
343.284	3
357.2779	19
358.2815	2
359.2443	999
360.2984	562
361.3001	76
