Mass spectrum: syringaldehyde; LC-ESI-QTOF; MS2; CE: 15;  [M-H]-
Name: syringaldehyde
Class: NA
Formula: C9H10O4
Exact mass: 182.0579
SMILES: COC1=CC(=CC(=C1O)OC)C=O
InChI: InChI=1S/C9H10O4/c1-12-7-3-6(5-10)4-8(13-2)9(7)11/h3-5,11H,1-2H3
Instrument: Bruker MicrOTOF-Q
Instrument type: LC-ESI-QTOF
Ms type: MS2
Ion mode: NEGATIVE
Ionization: ESI
Collision energy: 15
Column name: Acquity CSHC18
Retention time: NA
Base peak: 181.0506
Precursor m/z: 181.0506
Precursor type: [M-H]-
m/z	relative intensity
47.2364	20
50.6163	19
55.6042	20
61.0318	19
67.8792	20
74.2865	20
79.8572	19
88.1315	20
96.9147	21
105.6594	21
114.6868	19
123.4014	183
130.5324	19
135.114	17
137.4612	30
140.0399	17
142.6795	18
145.492	19
146.7098	19
148.3055	17
151.3354	999
154.9662	21
159.5613	16
165.7807	424
169.9327	15
181.0532	67
