Mass spectrum: Cinnamic acid; LC-ESI-ITFT; MS2; CE: 45eV;  [M+H]+
Name: Cinnamic acid
Class: phenolic acid
Formula: C9H8O2
Exact mass: 148.0524
SMILES: C1=CC=C(C=C1)C=CC(=O)O
InChI: InChI=1S/C9H8O2/c10-9(11)7-6-8-4-2-1-3-5-8/h1-7H,(H,10,11)
Instrument: LTQ Orbitrap XL, Thermo Scientfic; Dionex Ultimate 300
Instrument type: LC-ESI-ITFT
Ms type: MS2
Ion mode: POSITIVE
Ionization: ESI
Collision energy: 45eV
Column name: Alltima C18
Retention time: 20.84 min
Base peak: 149.0590
Precursor m/z: 149.0590
Precursor type: [M+H]+
m/z	relative intensity
68.8954	65
88.9602	32
100.8684	54
116.9007	999
127.6052	86
