Mass spectrum: PHOSPHOSERINE; LC-ESI-QTOF; MS2; CE: 20;  [M-H]-
Name: PHOSPHOSERINE
Class: NA
Formula: C3H8NO6P
Exact mass: 185.00892
SMILES: N[C@@H](COP(O)(O)=O)C(O)=O
InChI: InChI=1S/C3H8NO6P/c4-2(3(5)6)1-10-11(7,8)9/h2H,1,4H2,(H,5,6)(H2,7,8,9)/t2-/m0/s1
Instrument: Agilent 6530Â Q-TOF LC/MS
Instrument type: LC-ESI-QTOF
Ms type: MS2
Ion mode: NEGATIVE
Ionization: ESI
Collision energy: 20
Column name: NA
Retention time: 0.200 min
Base peak: 184.00038
Precursor m/z: 184.00038
Precursor type: [M-H]-
Precursor intensity: 124
m/z	relative intensity
78.9738	293
96.9795	999
