Mass spectrum: Chlorogenic acid; ESI-TOF; MS2; CE: 0.6458333;  [M+H]+
Name: Chlorogenic acid
Class: NA
Formula: C16H18O9
Exact mass: 354.09508
SMILES: OC1CC(O)(CC(OC(=O)C=CC2=CC(O)=C(O)C=C2)C1O)C(O)=O
InChI: InChI=1S/C16H18O9/c17-9-3-1-8(5-10(9)18)2-4-13(20)25-12-7-16(24,15(22)23)6-11(19)14(12)21/h1-5,11-12,14,17-19,21,24H,6-7H2,(H,22,23)
Instrument: waters xevo g2 TOF
Instrument type: ESI-TOF
Ms type: MS2
Ion mode: POSITIVE
Ionization: ESI
Collision energy: 0.6458333
Column name: Acquity CSHC18
Retention time: 1.927 min
Base peak: 355.10308
Precursor m/z: 355.10308
Precursor type: [M+H]+
m/z	relative intensity
65.0397	22
67.0553	21
77.0391	125
79.0551	45
83.0499	190
85.029	52
89.0392	412
90.0426	32
91.0548	10
93.0339	21
94.0392	8
95.0497	91
101.9408	4
105.034	135
107.0496	100
108.0524	7
109.0292	8
110.0711	4
111.0445	58
112.0479	21
117.034	204
118.0368	31
121.029	48
122.0365	22
123.0811	155
124.9915	4
129.0552	113
130.0589	5
133.0289	409
134.0342	34
136.0412	25
138.0669	25
139.0393	113
145.0288	188
146.0319	14
147.0547	19
149.0237	23
150.0312	91
151.0391	70
152.0431	11
153.0627	26
157.0498	45
161.0237	56
162.0297	19
163.0393	999
164.0427	96
165.0594	21
169.0635	3
173.0254	20
177.0546	21
179.0342	162
180.0376	23
181.0638	60
182.0131	4
195.0882	15
197.0528	3
198.0067	1
199.0758	31
200.9873	33
205.9655	2
207.0289	12
208.0328	1
209.0586	13
213.008	15
216.9605	31
218.9607	6
221.009	1
228.0231	4
233.961	16
243.0659	9
245.0815	8
249.0545	3
253.0479	3
267.0682	2
275.0495	2
276.0309	11
281.0567	2
285.0352	12
289.0721	5
295.0614	25
307.081	42
308.0836	3
311.035	1
317.0647	1
321.0415	4
323.0531	15
324.0613	2
325.9877	14
326.9956	4
329.0403	58
330.0645	13
331.9628	7
333.0543	1
335.0766	14
339.0482	3
343.9981	10
347.0721	12
353.0868	57
354.0909	13
355.101	75
356.1052	6
357.0588	127
