Mass spectrum: Stachyose; ESI-TOF; MS2; CE: 6.0000000;  [M+H]+
Name: Stachyose
Class: NA
Formula: C24H42O21
Exact mass: 666.22186
SMILES: OCC1OC(OCC2OC(OCC3OC(OC4(CO)OC(CO)C(O)C4O)C(O)C(O)C3O)C(O)C(O)C2O)C(O)C(O)C1O
InChI: InChI=1S/C24H42O21/c25-1-6-10(28)14(32)17(35)21(41-6)39-3-8-11(29)15(33)18(36)22(42-8)40-4-9-12(30)16(34)19(37)23(43-9)45-24(5-27)20(38)13(31)7(2-26)44-24/h6-23,25-38H,1-5H2
Instrument: waters xevo g2 TOF
Instrument type: ESI-TOF
Ms type: MS2
Ion mode: POSITIVE
Ionization: ESI
Collision energy: 6.0000000
Column name: Acquity CSHC18
Retention time: 0.554 min
Base peak: 667.22986
Precursor m/z: 667.22986
Precursor type: [M+H]+
m/z	relative intensity
85.029	254
91.0398	1
95.9736	1
97.0295	211
100.9581	1
114.9695	1
127.0394	317
130.0095	85
135.9926	136
135.9929	92
138.9913	86
145.0502	420
163.0606	705
173.9799	65
178.1223	24
272.0693	1
325.1137	709
326.1173	92
337.0186	1
337.0209	1
343.1247	41
353.0931	108
379.0315	1
439.0537	99
487.1668	303
488.1704	49
499.0727	1
505.1745	171
529.1367	55
558.089	999
559.0913	161
684.257	147
689.2111	569
690.2134	64
1009.3474	45
