Mass spectrum: 1-Methoxy-3-indolylmethylglucosinolate; LC-ESI-ITFT; MS2; CE: 30;  [M+H]+
Name: 1-Methoxy-3-indolylmethylglucosinolate
Class: NA
Formula: C17H22N2O10S2
Exact mass: 478.0716
SMILES: CON1C=C(C2=CC=CC=C21)CC(=NOS(=O)(=O)O)SC3C(C(C(C(O3)CO)O)O)O
InChI: InChI=1S/C17H22N2O10S2/c1-27-19-7-9(10-4-2-3-5-11(10)19)6-13(18-29-31(24,25)26)30-17-16(23)15(22)14(21)12(8-20)28-17/h2-5,7,12,14-17,20-23H,6,8H2,1H3,(H,24,25,26)
Instrument: q exactive focus thermo
Instrument type: LC-ESI-ITFT
Ms type: MS2
Ion mode: POSITIVE
Ionization: ESI
Collision energy: 30
Column name: Acquity CSHC18
Retention time: 6.400 min
Base peak: 479.0783
Precursor m/z: 479.0783
Precursor type: [M+H]+
Precursor intensity: 7820717
m/z	relative intensity
100.0506	1
101.0278	1
102.0573	2
103.0423	3
104.0536	3
105.045	4
106.0696	5
107.0503	5
109.0515	5
111.0439	5
115.0478	6
116.0563	6
117.063	7
118.068	8
119.065	8
120.0416	8
121.0555	8
122.0783	9
123.0804	10
127.0574	11
128.0562	11
129.0402	12
131.0671	15
132.0652	17
133.0662	19
134.0784	25
135.0805	25
136.0147	27
140.0589	27
142.0648	27
142.9523	28
143.0728	30
144.0563	36
145.0639	42
147.0835	43
148.0408	54
153.0684	55
157.0877	59
158.9849	60
159.0981	66
160.0483	66
161.0738	67
162.0593	81
163.076	89
165.0691	93
167.0529	98
172.0409	108
173.0555	147
179.0826	147
185.0548	168
187.0585	172
204.1264	258
216.9969	271
219.0457	283
237.0495	301
239.0789	754
319.1211	999
