Mass spectrum: Cystine; LC-ESI-QTOF; MS2; CE: 10;  [M-H]-
Name: Cystine
Class: NA
Formula: C6H12N2O4S2
Exact mass: 240.0238
SMILES: C(C(C(=O)O)N)SSCC(C(=O)O)N
InChI: InChI=1S/C6H12N2O4S2/c7-3(5(9)10)1-13-14-2-4(8)6(11)12/h3-4H,1-2,7-8H2,(H,9,10)(H,11,12)
Instrument: impact II
Instrument type: LC-ESI-QTOF
Ms type: MS2
Ion mode: NEGATIVE
Ionization: ESI
Collision energy: 10
Column name: Acquity CSHC18
Retention time: 1.920 min
Base peak: 239.0165
Precursor m/z: 239.0165
Precursor type: [M-H]-
m/z	relative intensity
74.0075	112
120.0125	999
151.9845	286
