Mass spectrum: 15-deoxy--delta12,14-Prostaglandin J2; ESI-TOF; MS2; CE: 0.6458333;  [M+H]+
Name: 15-deoxy--delta12,14-Prostaglandin J2
Class: NA
Formula: C20H28O3
Exact mass: 316.20384
SMILES: O=C1/C([C@@H](C/C=C\CCCC(O)=O)C=C1)=C/C=C/CCCCC
InChI: InChI=1S/C20H28O3/c1-2-3-4-5-6-10-13-18-17(15-16-19(18)21)12-9-7-8-11-14-20(22)23/h6-7,9-10,13,15-17H,2-5,8,11-12,14H2,1H3,(H,22,23)/b9-7-,10-6+,18-13+/t17-/m0/s1
Instrument: waters xevo g2 TOF
Instrument type: ESI-TOF
Ms type: MS2
Ion mode: POSITIVE
Ionization: ESI
Collision energy: 0.6458333
Column name: Acquity CSHC18
Retention time: 4.490 min
Base peak: 317.21184
Precursor m/z: 317.21184
Precursor type: [M+H]+
m/z	relative intensity
67.0543	277
79.0547	209
81.0709	373
83.0856	53
91.0555	536
93.0712	281
97.0669	122
105.0709	579
107.0854	256
109.1026	630
116.0616	63
117.0711	596
119.0873	349
121.1032	70
128.0624	124
129.0707	827
130.0764	90
131.0871	722
132.0888	84
133.0654	918
135.0809	344
137.966	23
141.0715	598
143.0868	577
145.0661	761
146.0702	142
147.0813	740
153.0708	52
154.0789	124
155.0866	734
156.0893	100
157.1014	524
158.0697	34
159.0846	627
161.0967	239
165.0997	48
166.0813	38
167.0849	158
169.1019	825
170.1063	94
171.1178	323
173.0961	470
174.0997	50
175.1127	162
178.083	46
179.0859	158
181.1026	148
183.117	686
184.1194	59
185.097	602
186.0111	29
187.0588	224
189.0648	181
191.139	43
195.1172	70
197.1154	395
198.1365	28
199.1125	112
201.1269	217
202.0973	23
203.0598	107
212.119	75
215.1446	579
224.1204	29
225.1255	132
229.1093	114
239.1792	245
243.1355	27
247.0641	105
253.1964	374
255.1674	26
271.2062	184
281.1897	384
299.2013	999
300.2051	211
317.2113	751
318.2145	143
