Mass spectrum: GUANOSINE DIPHOSPHATE; LC-ESI-QTOF; MS2; CE: -10, -35, -60V;  [M-H]-
Name: GUANOSINE DIPHOSPHATE
Class: NA
Formula: C10H15N5O11P2
Exact mass: 443.0243
SMILES: C1=NC2=C(N1C3C(C(C(O3)COP(=O)(O)OP(=O)(O)O)O)O)NC(=NC2=O)N
InChI: InChI=1S/C10H15N5O11P2/c11-10-13-7-4(8(18)14-10)12-2-15(7)9-6(17)5(16)3(25-9)1-24-28(22,23)26-27(19,20)21/h2-3,5-6,9,16-17H,1H2,(H,22,23)(H2,19,20,21)(H3,11,13,14,18)
Instrument: TripleToF 5600; Sciex
Instrument type: LC-ESI-QTOF
Ms type: MS2
Ion mode: NEGATIVE
Ionization: ESI
Collision energy: -10, -35, -60V
Column name: Acquity CSHC18
Retention time: 12.451 min
Base peak: 442.0193
Precursor m/z: 442.0193
Precursor type: [M-H]-
Precursor intensity: 46576.13
m/z	relative intensity
78.9578	982
133.0127	63
150.0412	253
158.9275	698
344.0235	26
344.0418	270
424.0108	111
442.0174	999
