Mass spectrum: 3-METHYL-2-OXINDOLE; LC-ESI-QTOF; MS2; CE: 20;  [M+H]+
Name: 3-METHYL-2-OXINDOLE
Class: NA
Formula: C9H9NO
Exact mass: 147.06841
SMILES: CC1C2=CC=CC=C2NC1=O
InChI: InChI=1S/C9H9NO/c1-6-7-4-2-3-5-8(7)10-9(6)11/h2-6H,1H3,(H,10,11)
Instrument: Agilent 6530Â Q-TOF LC/MS
Instrument type: LC-ESI-QTOF
Ms type: MS2
Ion mode: POSITIVE
Ionization: ESI
Collision energy: 20
Column name: NA
Retention time: 0.200 min
Base peak: 148.07470
Precursor m/z: 148.07470
Precursor type: [M+H]+
Precursor intensity: 62.5
m/z	relative intensity
42.0584	22
42.1719	23
42.2594	23
42.3451	24
43.0285	25
44.0152	25
51.0352	25
53.0402	26
55.0179	27
65.0467	27
77.1542	27
77.4212	28
77.5412	28
78.0594	29
78.3229	29
79.0753	32
80.0517	33
88.0193	33
90.0472	34
91.0698	34
92.0596	37
93.0742	42
94.0776	43
102.0469	45
103.1522	46
103.5314	48
104.0861	55
104.325	58
104.5192	60
105.1995	63
105.5167	73
106.0629	77
115.0487	84
117.0583	99
118.0868	113
119.0603	114
120.1472	138
121.0793	150
128.0572	165
130.1256	166
130.4016	494
130.8434	542
131.0743	599
132.0604	653
133.3381	785
133.8827	839
134.0601	914
134.1497	926
147.0722	999
148.1311	22
