Mass spectrum: Formononetin; LC-ESI-ITFT; MS2; CE: 20;  [M+H]+
Name: Formononetin
Class: Phenylpropanoids and polyketides; Isoflavonoids; O-methylated isoflavonoids
Formula: C16H12O4
Exact mass: 268.07356
SMILES: COC1=CC=C(C=C1)C1=COC2=C(C=CC(O)=C2)C1=O
InChI: InChI=1S/C16H12O4/c1-19-12-5-2-10(3-6-12)14-9-20-15-8-11(17)4-7-13(15)16(14)18/h2-9,17H,1H3
Instrument: Thermo Scientific Q-Exactive Focus
Instrument type: LC-ESI-ITFT
Ms type: MS2
Ion mode: POSITIVE
Ionization: ESI
Collision energy: 20
Column name: Acquity CSHC18
Retention time: 0.630 min
Base peak: 269.08084
Precursor m/z: 269.08084
Precursor type: [M+H]+
m/z	relative intensity
107.0493	13
118.0413	17
137.0232	7
154.0259	8
213.0907	55
226.062	11
237.0541	33
253.0491	21
254.057	75
269.0806	999
