Mass spectrum: Apigenin 7-methyl ether; LC-ESI-QTOF; MS2; CE: 50eV;  [M+H]+
Name: Apigenin 7-methyl ether
Class: Flavone
Formula: C16H12O5
Exact mass: 284.0685
SMILES: COC1=CC(=C2C(=C1)OC(=CC2=O)C3=CC=C(C=C3)O)O
InChI: InChI=1S/C16H12O5/c1-20-11-6-12(18)16-13(19)8-14(21-15(16)7-11)9-2-4-10(17)5-3-9/h2-8,17-18H,1H3
Instrument: TIMS-TOF Pro, Bruker Daltonik; Elute UHPLC System, Bruker Daltonik
Instrument type: LC-ESI-QTOF
Ms type: MS2
Ion mode: POSITIVE
Ionization: ESI
Collision energy: 50eV
Column name: Acquity CSHC18
Retention time: 8.986 min
Base peak: 285.0759
Precursor m/z: 285.0759
Precursor type: [M+H]+
Precursor intensity: 1089829
m/z	relative intensity
56.5371	2
82.6199	1
96.0096	1
112.5334	2
120.0557	6
124.0044	5
124.015	65
130.0898	1
132.0497	3
135.0051	1
147.0363	2
151.0399	2
159.0444	4
167.0092	2
167.0318	9
168.0586	5
186.0678	3
187.0386	8
196.0543	3
213.0237	1
213.0515	10
224.0443	2
229.0809	1
242.0567	42
243.0625	7
246.6574	2
270.0525	12
284.535	2
285.033	13
285.0759	999
285.3465	1
285.5556	10
