Mass spectrum: DEOXYCYTIDINE; LC-ESI-QFT; MS2; CE: 30eV;  [M-H]-
Name: DEOXYCYTIDINE
Class: NA
Formula: C9H13N3O4
Exact mass: 227.09061
SMILES: NC1=NC(=O)N(C=C1)[C@H]1C[C@H](O)[C@@H](CO)O1
InChI: InChI=1S/C9H13N3O4/c10-7-1-2-12(9(15)11-7)8-3-5(14)6(4-13)16-8/h1-2,5-6,8,13-14H,3-4H2,(H2,10,11,15)/t5-,6+,8+/m0/s1
Instrument: Q-Exactive Orbitrap, Thermo Scientfic; Ultimate 3000 HPLC, Thermo Scientfic
Instrument type: LC-ESI-QFT
Ms type: MS2
Ion mode: NEGATIVE
Ionization: ESI
Collision energy: 30eV
Column name: Acquity CSHC18
Retention time: 0.745 min
Base peak: 226.0833
Precursor m/z: 226.0833
Precursor type: [M-H]-
Precursor intensity: 161
m/z	relative intensity
50.5866	6
59.1232	7
60.5071	6
60.556	5
61.9868	8
62.6071	5
66.0334	58
66.6413	6
73.9642	7
74.3947	6
91.9105	73
93.0442	999
94.0475	31
97.2223	7
115.2795	8
135.0548	126
135.9004	164
136.0504	8
136.9082	9
141.9108	9
144.829	7
177.7775	8
179.4668	7
190.1078	7
226.0826	15
