Mass spectrum: H-Leu-Tyr-OH; LC-ESI-QTOF; MS2; CE: 15.00;  [M+H]+
Name: H-Leu-Tyr-OH
Class: NA
Formula: C15H22N2O4
Exact mass: 294.1580
SMILES: CC(C)CC(C(=O)NC(CC1=CC=C(C=C1)O)C(=O)O)N
InChI: InChI=1S/C15H22N2O4/c1-9(2)7-12(16)14(19)17-13(15(20)21)8-10-3-5-11(18)6-4-10/h3-6,9,12-13,18H,7-8,16H2,1-2H3,(H,17,19)(H,20,21)
Instrument: Bruker MicrOTOF-Q
Instrument type: LC-ESI-QTOF
Ms type: MS2
Ion mode: POSITIVE
Ionization: ESI
Collision energy: 15.00
Column name: Acquity CSHC18
Retention time: NA
Base peak: 295.1652
Precursor m/z: 295.1652
Precursor type: [M+H]+
m/z	relative intensity
122.12	1
147.04	4
147.08	2
148.06	2
165.05	219
165.27	3
165.34	1
166.06	20
169.16	2
171.12	1
181.07	1
181.18	2
181.32	1
181.7	2
181.9	3
181.99	2
182.08	999
182.25	3
182.33	2
182.44	2
182.51	3
182.58	2
183.08	94
184.08	1
190.08	4
201.46	2
208.06	3
210.29	1
223.8	1
231.16	1
232.13	5
236.09	2
249.16	90
249.25	1
250.16	13
259.14	2
267.16	2
277.15	6
277.23	2
278.14	9
279.14	2
295.16	171
295.73	2
295.9	2
296.17	21
316.13	2
508.2	2
