Mass spectrum: PEP; LC-ESI-QTOF; MS2; CE: 15 / 50;  [M-H]-
Name: PEP
Class: NA
Formula: C3H5O6P
Exact mass: 167.9824
SMILES: C=C(C(=O)O)OP(=O)(O)O
InChI: InChI=1S/C3H5O6P/c1-2(3(4)5)9-10(6,7)8/h1H2,(H,4,5)(H2,6,7,8)
Instrument: impact II
Instrument type: LC-ESI-QTOF
Ms type: MS2
Ion mode: NEGATIVE
Ionization: ESI
Collision energy: 15 / 50
Column name: Acquity CSHC18
Retention time: 0.664 min
Base peak: 166.9751
Precursor m/z: 166.9751
Precursor type: [M-H]-
m/z	relative intensity
62.9643	2
78.9468	1
78.9595	999
78.9703	55
78.9995	3
79.0158	4
79.0233	5
79.0306	9
79.0711	1
79.1124	1
79.1185	1
79.1287	1
79.1394	1
79.964	2
96.97	3
148.9642	5
