Mass spectrum: 17-phenyl trinor Prostaglandin E2 serinol amide; ESI-TOF; MS2; CE: 6.0000000;  [M+H]+
Name: 17-phenyl trinor Prostaglandin E2 serinol amide
Class: NA
Formula: C26H37NO6
Exact mass: 459.26209
SMILES: OCC(CO)NC(CCC\C=C/C[C@@H]1C(/C=C/[C@@H](O)CCC2=CC=CC=C2)[C@H](O)CC1=O)=O
InChI: InChI=1S/C26H37NO6/c28-17-20(18-29)27-26(33)11-7-2-1-6-10-22-23(25(32)16-24(22)31)15-14-21(30)13-12-19-8-4-3-5-9-19/h1,3-6,8-9,14-15,20-23,25,28-30,32H,2,7,10-13,16-18H2,(H,27,33)/b6-1-,15-14+/t21-,22+,23?,25+/m0/s1
Instrument: waters xevo g2 TOF
Instrument type: ESI-TOF
Ms type: MS2
Ion mode: POSITIVE
Ionization: ESI
Collision energy: 6.0000000
Column name: Acquity CSHC18
Retention time: 2.908 min
Base peak: 460.27009
Precursor m/z: 460.27009
Precursor type: [M+H]+
m/z	relative intensity
91.0554	6
162.9741	36
172.9785	8
231.6021	62
232.1031	13
239.5881	19
240.6064	208
249.6125	39
324.1248	3
372.2539	11
406.2419	35
407.2422	15
424.2498	564
425.2521	147
426.2549	21
442.2604	46
443.2623	999
444.2674	158
445.2676	14
460.2726	59
461.271	17
