Mass spectrum: Adenosine; LC-ESI-QTOF; MS2; CE: 15.00;  [M-H]-
Name: Adenosine
Class: NA
Formula: C10H13N5O4
Exact mass: 267.0968
SMILES: C1=NC(=C2C(=N1)N(C=N2)C3C(C(C(O3)CO)O)O)N
InChI: InChI=1S/C10H13N5O4/c11-8-5-9(13-2-12-8)15(3-14-5)10-7(18)6(17)4(1-16)19-10/h2-4,6-7,10,16-18H,1H2,(H2,11,12,13)
Instrument: Bruker MicrOTOF-Q
Instrument type: LC-ESI-QTOF
Ms type: MS2
Ion mode: NEGATIVE
Ionization: ESI
Collision energy: 15.00
Column name: Acquity CSHC18
Retention time: NA
Base peak: 266.0895
Precursor m/z: 266.0895
Precursor type: [M-H]-
m/z	relative intensity
47.2067	63
48.35	44
49.0279	50
50.4614	63
52.7092	54
59.2388	61
61.6244	52
64.3008	92
83.3149	94
107.0367	84
113.6707	50
119.1093	56
120.2572	67
130.0968	50
133.5884	88
134.0449	999
135.0473	80
139.6946	69
143.598	46
164.9296	56
170.3131	56
178.6205	75
181.575	54
191.0256	42
230.157	67
244.8885	52
306.0781	44
447.4932	42
479.6588	54
485.7237	46
497.7789	71
584.3276	56
608.3631	71
629.9724	50
675.8523	50
686.1144	59
764.7122	42
771.2368	56
779.4664	46
815.1918	42
842.2741	59
920.0461	59
924.4257	82
924.716	56
981.5224	69
