Mass spectrum: 3-Hydroxyanthranilic acid; LC-ESI-ITFT; MS2; CE: 60;  [M+H]+
Name: 3-Hydroxyanthranilic acid
Class: Benzenoids; Benzene and substituted derivatives; Benzoic acids and derivatives
Formula: C7H7NO3
Exact mass: 153.04259
SMILES: NC1=C(O)C=CC=C1C(O)=O
InChI: InChI=1S/C7H7NO3/c8-6-4(7(10)11)2-1-3-5(6)9/h1-3,9H,8H2,(H,10,11)
Instrument: Thermo Scientific Q-Exactive Focus
Instrument type: LC-ESI-ITFT
Ms type: MS2
Ion mode: POSITIVE
Ionization: ESI
Collision energy: 60
Column name: Acquity CSHC18
Retention time: NA
Base peak: 154.04987
Precursor m/z: 154.04987
Precursor type: [M+H]+
m/z	relative intensity
51.0235	55
53.0028	40
53.0392	999
54.0344	206
62.0156	28
63.0235	173
80.0499	380
92.5243	41
107.3304	22
119.7001	21
