Mass spectrum: Barbituric acid; LC-ESI-ITFT; MS2; CE: 100;  [M-H]-
Name: Barbituric acid
Class: Organoheterocyclic compounds; Diazines; Pyrimidines and pyrimidine derivatives
Formula: C4H4N2O3
Exact mass: 128.02219
SMILES: OC1=NC(=O)N=C(O)C1
InChI: InChI=1S/C4H4N2O3/c7-2-1-3(8)6-4(9)5-2/h1H2,(H2,5,6,7,8,9)
Instrument: Thermo Scientific Q-Exactive Focus
Instrument type: LC-ESI-ITFT
Ms type: MS2
Ion mode: NEGATIVE
Ionization: ESI
Collision energy: 100
Column name: Acquity CSHC18
Retention time: 2.587 min
Base peak: 127.01492
Precursor m/z: 127.01492
Precursor type: [M-H]-
m/z	relative intensity
56.5974	792
60.6073	840
76.555	789
100.7247	918
122.673	999
139.3339	812
142.033	906
144.3289	877
146.1108	808
149.1105	832
