Mass spectrum: Choline; ESI-TOF; MS2; CE: 6.0000000;  [M+H]+
Name: Choline
Class: NA
Formula: [C5H14NO]+
Exact mass: 104.10699
SMILES: C[N+](C)(C)CCO
InChI: InChI=1S/C5H14NO/c1-6(2,3)4-5-7/h7H,4-5H2,1-3H3/q+1
Instrument: waters xevo g2 TOF
Instrument type: ESI-TOF
Ms type: MS2
Ion mode: POSITIVE
Ionization: ESI
Collision energy: 6.0000000
Column name: Acquity CSHC18
Retention time: 0.473 min
Base peak: 105.11554
Precursor m/z: 105.11554
Precursor type: [M+H]+
m/z	relative intensity
104.1077	999
105.1111	67
113.9641	55
138.9901	4
138.9904	9
168.9862	3
182.9855	105
207.2073	9
