Mass spectrum: 3-Ara-28-Glc-Bayogenin; ESI-QTOF; MS2; CE: 30 eV;  [M-H]-
Name: 3-Ara-28-Glc-Bayogenin
Class: Saponin
Formula: C41H66O14
Exact mass: 782.4453
SMILES: CC1(C)CCC2(CCC3(C)C(=CCC4(C5(C)CC(C(C(C)(CO)C5(CCC43C)[H])(OC6(C(C(C(CO6)(O)[H])(O)[H])(O)[H])[H])[H])(O)[H])[H])C2(C1)[H])C(=O)OC7(C(C(C(C(CO)(O7)[H])(O)[H])(O)[H])(O)[H])[H]
InChI: InChI=1S/C41H66O14/c1-36(2)11-13-41(35(51)55-34-31(50)29(48)28(47)24(17-42)53-34)14-12-39(5)20(21(41)15-36)7-8-26-37(3)16-22(44)32(54-33-30(49)27(46)23(45)18-52-33)38(4,19-43)25(37)9-10-40(26,39)6/h7,21-34,42-50H,8-19H2,1-6H3
Instrument: Synapt (HDMS 1st gen)
Instrument type: ESI-QTOF
Ms type: MS2
Ion mode: NEGATIVE
Ionization: ESI
Collision energy: 30 eV
Column name: Acquity CSHC18
Retention time: 20.427 min
Base peak: 781.4370
Precursor m/z: 781.4370
Precursor type: [M-H]-
Precursor intensity: 133.24
m/z	relative intensity
104.4498	14
117.424	14
157.0548	14
163.3219	14
182.4416	14
239.0179	14
286.8881	14
295.9766	14
298.9246	14
324.0067	14
332.9617	14
358.9129	14
369.2879	14
373.3459	14
389.228	14
392.1226	14
399.6087	14
407.6039	14
411.5756	14
417.0275	14
439.8236	14
447.5716	14
455.8854	14
605.559	14
609.9637	14
619.3847	999
619.8886	29
619.9716	14
620.3888	484
620.8639	44
621.1944	14
621.3983	190
621.6138	29
621.755	14
621.8934	14
621.9902	29
622.1603	14
622.402	29
622.5524	14
622.7153	29
622.888	14
623.0107	14
623.7949	14
623.9206	29
624.3577	14
624.741	29
624.8547	14
625.1946	14
625.6075	14
626.8917	14
628.8325	14
629.6833	14
661.3234	14
662.3621	14
664.2542	14
676.3398	14
677.4108	14
679.1568	14
681.9359	14
686.4935	14
689.5103	14
693.5068	14
698.8779	14
700.4007	58
700.9082	44
701.4105	29
702.4443	14
705.1623	14
706.7592	14
763.9021	14
778.4625	14
779.3386	29
780.9482	29
781.4654	29
781.8635	14
