Mass spectrum: N-ACETYLTRYPTOPHAN; LC-ESI-QTOF; MS2; CE: 20;  [M-H]-
Name: N-ACETYLTRYPTOPHAN
Class: NA
Formula: C13H14N2O3
Exact mass: 246.10044
SMILES: CC(=O)N[C@@H](CC1=CNC2=C1C=CC=C2)C(O)=O
InChI: InChI=1S/C13H14N2O3/c1-8(16)15-12(13(17)18)6-9-7-14-11-5-3-2-4-10(9)11/h2-5,7,12,14H,6H2,1H3,(H,15,16)(H,17,18)/t12-/m0/s1
Instrument: Agilent 6530Â Q-TOF LC/MS
Instrument type: LC-ESI-QTOF
Ms type: MS2
Ion mode: NEGATIVE
Ionization: ESI
Collision energy: 20
Column name: NA
Retention time: 0.200 min
Base peak: 245.09736
Precursor m/z: 245.09736
Precursor type: [M-H]-
Precursor intensity: 164
m/z	relative intensity
42.0042	110
58.0419	123
72.0363	153
74.0414	167
98.036	185
116.0629	204
130.0722	267
142.0701	433
159.1001	514
201.1059	643
203.0991	698
245.1001	999
