Mass spectrum: L-Tyrosine; LC-ESI-ITFT; MS2; CE: 20;  [M-H]-
Name: L-Tyrosine
Class: Organic acids and derivatives; Carboxylic acids and derivatives; Amino acids, peptides, and analogues
Formula: C9H11NO3
Exact mass: 181.07389
SMILES: N[C@@H](CC1=CC=C(O)C=C1)C(O)=O
InChI: InChI=1S/C9H11NO3/c10-8(9(12)13)5-6-1-3-7(11)4-2-6/h1-4,8,11H,5,10H2,(H,12,13)/t8-/m0/s1
Instrument: Thermo Scientific Q-Exactive Focus
Instrument type: LC-ESI-ITFT
Ms type: MS2
Ion mode: NEGATIVE
Ionization: ESI
Collision energy: 20
Column name: Acquity CSHC18
Retention time: 0.642 min
Base peak: 180.06662
Precursor m/z: 180.06662
Precursor type: [M-H]-
m/z	relative intensity
57.9745	103
79.9561	167
92.9188	999
92.9926	28
108.0442	67
116.9333	31
123.9453	42
134.0461	64
136.9088	45
180.8393	30
