Mass spectrum: Putative_Trichoside A; LC-ESI-QTOF; MS2; CE: 20-40eV;  [M+NH4]+
Name: Putative_Trichoside A
Class: Triterpene saponins
Formula: C48H74O20
Exact mass: 970.4773
SMILES: CC1(C)CCC2(CCC3(C)C(=CCC4C5(C)CCC(C(C)(C=O)C5CCC43C)OC6C(C(C(C(C(=O)O)O6)O)OC7C(C(C(C(CO)O7)O)O)O)O)C2C1)C(=O)OC8C(C(C(C(CO)O8)O)O)O
InChI: InChI=1S/C48H74O20/c1-43(2)13-15-48(42(62)68-40-33(57)31(55)29(53)24(19-50)64-40)16-14-46(5)21(22(48)17-43)7-8-26-44(3)11-10-27(45(4,20-51)25(44)9-12-47(26,46)6)65-41-35(59)36(34(58)37(67-41)38(60)61)66-39-32(56)30(54)28(52)23(18-49)63-39/h7,20,22-37,39-41,49-50,52-59H,8-19H2,1-6H3,(H,60,61)
Instrument: Impact II, Bruker; Dionex 3000, Thermo Scientific
Instrument type: LC-ESI-QTOF
Ms type: MS2
Ion mode: POSITIVE
Ionization: ESI
Collision energy: 20-40eV
Column name: Acquity CSHC18
Retention time: 14.823 min
Base peak: 988.5096
Precursor m/z: 988.5096
Precursor type: [M+NH4]+
Precursor intensity: 28034.75
m/z	relative intensity
133.0754	21
145.075	23
191.2006	24
219.1753	29
221.1723	30
231.1924	50
247.1869	53
257.2093	63
287.2187	76
439.2388	90
441.0874	672
809.4455	999
