Mass spectrum: Gibberellin A4; LC-ESI-QTOF; MS2; CE: -10, -35, -60V;  [M-H]-
Name: Gibberellin A4
Class: NA
Formula: C19H24O5
Exact mass: 332.1624
SMILES: CC12C(CCC3(C1C(C45C3CCC(C4)C(=C)C5)C(=O)O)OC2=O)O
InChI: InChI=1S/C19H24O5/c1-9-7-18-8-10(9)3-4-11(18)19-6-5-12(20)17(2,16(23)24-19)14(19)13(18)15(21)22/h10-14,20H,1,3-8H2,2H3,(H,21,22)
Instrument: TripleToF 5600; Sciex
Instrument type: LC-ESI-QTOF
Ms type: MS2
Ion mode: NEGATIVE
Ionization: ESI
Collision energy: -10, -35, -60V
Column name: Acquity CSHC18
Retention time: 15.363 min
Base peak: 331.1577
Precursor m/z: 331.1577
Precursor type: [M-H]-
Precursor intensity: 389885.4
m/z	relative intensity
73.0306	80
145.0693	24
155.0875	21
157.1016	54
169.1007	54
173.0908	43
173.1001	43
175.1136	16
183.1196	53
185.0962	15
211.1117	31
213.1183	473
213.1286	423
214.1334	72
221.1281	46
223.1521	90
225.1344	148
225.1662	431
226.1671	56
237.1321	16
239.1406	48
241.1553	57
241.1641	44
243.1763	999
244.1789	204
251.1498	32
257.1243	558
258.1167	164
269.1568	421
270.1582	77
271.1568	10
285.1519	73
287.1672	678
288.168	204
313.1509	250
314.1559	57
328.175	39
330.1008	76
330.1136	150
330.1368	125
