Mass spectrum: CYSTEATE; LC-ESI-QFT; MS2; CE: 30eV;  [M+H]+
Name: CYSTEATE
Class: NA
Formula: C3H7NO5S
Exact mass: 169.00449
SMILES: NC(CS(O)(=O)=O)C(O)=O
InChI: InChI=1S/C3H7NO5S/c4-2(3(5)6)1-10(7,8)9/h2H,1,4H2,(H,5,6)(H,7,8,9)
Instrument: Q-Exactive Orbitrap, Thermo Scientfic; Ultimate 3000 HPLC, Thermo Scientfic
Instrument type: LC-ESI-QFT
Ms type: MS2
Ion mode: POSITIVE
Ionization: ESI
Collision energy: 30eV
Column name: Acquity CSHC18
Retention time: 0.562 min
Base peak: 170.0118
Precursor m/z: 170.0118
Precursor type: [M+H]+
Precursor intensity: 193
m/z	relative intensity
52.1574	3
54.6361	3
58.2561	3
59.1716	3
59.9259	3
60.0453	5
66.2895	3
66.7656	3
70.0629	3
72.5932	4
74.2916	4
85.5613	3
88.0399	8
89.0716	4
91.7198	3
105.9963	450
107.0861	33
123.117	5
125.0064	8
125.01	39
151.1127	4
152.0015	18
156.099	3
170.0122	999
170.0793	5
170.0968	9
171.0154	6
171.1493	5
