Mass spectrum: Salicylic acid glucoside; LC-ESI-ITFT; MS2; CE: 45eV;  [M-H]-
Name: Salicylic acid glucoside
Class: phenolic acid
Formula: C13H16O8
Exact mass: 300.0845
SMILES: C1=CC=C(C(=C1)C(=O)O)OC2C(C(C(C(O2)CO)O)O)O
InChI: InChI=1S/C13H16O8/c14-5-8-9(15)10(16)11(17)13(21-8)20-7-4-2-1-3-6(7)12(18)19/h1-4,8-11,13-17H,5H2,(H,18,19)
Instrument: LTQ Orbitrap XL, Thermo Scientfic; Dionex Ultimate 300
Instrument type: LC-ESI-ITFT
Ms type: MS2
Ion mode: NEGATIVE
Ionization: ESI
Collision energy: 45eV
Column name: Alltima C18
Retention time: 11.47 min
Base peak: 299.0758
Precursor m/z: 299.0758
Precursor type: [M-H]-
m/z	relative intensity
100.8217	157
219.0633	157
255.1148	999
