Mass spectrum: Triamterene; ESI-TOF; MS2; CE: 0.6458333;  [M+H]+
Name: Triamterene
Class: NA
Formula: C12H11N7
Exact mass: 253.10759
SMILES: NC1=NC(N)=C2N=C(C3=CC=CC=C3)C(N)=NC2=N1
InChI: InChI=1S/C12H11N7/c13-9-7(6-4-2-1-3-5-6)16-8-10(14)18-12(15)19-11(8)17-9/h1-5H,(H6,13,14,15,17,18,19)
Instrument: waters xevo g2 TOF
Instrument type: ESI-TOF
Ms type: MS2
Ion mode: POSITIVE
Ionization: ESI
Collision energy: 0.6458333
Column name: Acquity CSHC18
Retention time: 1.877 min
Base peak: 254.11559
Precursor m/z: 254.11559
Precursor type: [M+H]+
m/z	relative intensity
67.0302	1
77.0396	3
80.0259	1
82.0412	10
92.0255	35
93.0286	1
96.9618	4
104.142	284
105.0537	37
107.0363	12
109.0517	2
113.9645	1
116.0505	50
117.0549	5
124.0623	2
129.046	3
131.0616	9
133.0762	1
134.0471	40
135.0263	1
141.0458	44
142.0699	19
143.0614	312
144.0733	29
145.0668	1
153.0455	5
158.0968	16
159.0427	1
166.0407	4
168.0566	433
169.0597	55
170.0699	7
176.069	3
180.0821	1
183.0675	95
184.071	11
185.0832	114
186.0849	12
187.096	1
193.052	26
194.0551	3
195.1441	327
196.0701	140
197.0723	8
207.0664	1
210.0784	462
211.0813	54
212.0662	311
213.0946	94
214.0967	5
220.0627	117
221.0657	14
224.095	2
227.1041	291
228.1074	39
229.1102	2
235.0739	4
236.0806	2
237.7209	531
239.0926	108
240.0971	5
249.0884	10
250.0931	1
252.1002	2
254.8554	999
