Mass spectrum: Malondialdehyde; LC-ESI-ITFT; MS2; CE: 20;  [M+H]+
Name: Malondialdehyde
Class: Organic oxygen compounds; Organooxygen compounds; Carbonyl compounds
Formula: C3H4O2
Exact mass: 72.02113
SMILES: O=CCC=O
InChI: InChI=1S/C3H4O2/c4-2-1-3-5/h2-3H,1H2
Instrument: Thermo Scientific Q-Exactive Focus
Instrument type: LC-ESI-ITFT
Ms type: MS2
Ion mode: POSITIVE
Ionization: ESI
Collision energy: 20
Column name: Acquity CSHC18
Retention time: 0.630 min
Base peak: 73.02841
Precursor m/z: 73.02841
Precursor type: [M+H]+
m/z	relative intensity
50.1635	29
55.0184	29
67.3258	26
69.4053	26
69.8147	25
72.5144	27
73.0289	999
74.2719	27
75.5433	25
85.4345	25
