Mass spectrum: Cortisol; LC-ESI-QFT; MS2; CE: 30eV;  [M-H]-
Name: Cortisol
Class: NA
Formula: C21H30O5
Exact mass: 362.20932
SMILES: [H][C@@]12CC[C@](O)(C(=O)CO)[C@@]1(C)C[C@H](O)[C@@]1([H])[C@@]2([H])CCC2=CC(=O)CC[C@]12C
InChI: InChI=1S/C21H30O5/c1-19-7-5-13(23)9-12(19)3-4-14-15-6-8-21(26,17(25)11-22)20(15,2)10-16(24)18(14)19/h9,14-16,18,22,24,26H,3-8,10-11H2,1-2H3/t14-,15-,16-,18+,19-,20-,21-/m0/s1
Instrument: Q-Exactive Orbitrap, Thermo Scientfic; Ultimate 3000 HPLC, Thermo Scientfic
Instrument type: LC-ESI-QFT
Ms type: MS2
Ion mode: NEGATIVE
Ionization: ESI
Collision energy: 30eV
Column name: Acquity CSHC18
Retention time: 8.415 min
Base peak: 361.2021
Precursor m/z: 361.2021
Precursor type: [M-H]-
Precursor intensity: 188
m/z	relative intensity
50.2876	4
50.8867	5
52.9668	6
53.6875	5
54.5278	5
55.9511	5
58.3161	5
59.9954	6
67.5989	6
73.9232	7
75.1221	6
80.1551	6
82.7883	6
82.7909	6
85.6755	6
113.3002	7
122.298	6
125.0593	175
136.7025	6
137.0595	34
137.9619	6
177.6052	6
182.0226	8
187.6861	6
188.9863	6
189.091	124
241.7529	8
253.2023	7
282.1261	195
283.1302	8
297.1496	695
298.1528	50
301.18	12
313.1812	47
315.1603	212
316.164	13
325.1819	7
330.1797	30
331.1917	999
332.1953	110
343.1914	84
352.4317	8
361.1669	40
