Mass spectrum: CYSTINE; LC-ESI-QTOF; MS2; CE: 20;  [M-H]-
Name: CYSTINE
Class: NA
Formula: C6H12N2O4S2
Exact mass: 240.02385
SMILES: N[C@@H](CSSC[C@H](N)C(O)=O)C(O)=O
InChI: InChI=1S/C6H12N2O4S2/c7-3(5(9)10)1-13-14-2-4(8)6(11)12/h3-4H,1-2,7-8H2,(H,9,10)(H,11,12)/t3-,4-/m0/s1
Instrument: Agilent 6530Â Q-TOF LC/MS
Instrument type: LC-ESI-QTOF
Ms type: MS2
Ion mode: NEGATIVE
Ionization: ESI
Collision energy: 20
Column name: NA
Retention time: 0.200 min
Base peak: 239.01705
Precursor m/z: 239.01705
Precursor type: [M-H]-
Precursor intensity: 199
m/z	relative intensity
64.9652	105
71.9959	130
74.0269	193
86.0307	238
117.9998	512
120.03	609
151.9866	999
