Mass spectrum: Deoxyinosine; LC-ESI-ITFT; MS2; CE: 20;  [M+H]+
Name: Deoxyinosine
Class: Nucleosides, nucleotides, and analogues; Purine nucleosides; Purine 2'-deoxyribonucleosides
Formula: C10H12N4O4
Exact mass: 252.08585
SMILES: OC[C@H]1O[C@H](C[C@@H]1O)N1C=NC2=C1N=CNC2=O
InChI: InChI=1S/C10H12N4O4/c15-2-6-5(16)1-7(18-6)14-4-13-8-9(14)11-3-12-10(8)17/h3-7,15-16H,1-2H2,(H,11,12,17)/t5-,6+,7+/m0/s1
Instrument: Thermo Scientific Q-Exactive Focus
Instrument type: LC-ESI-ITFT
Ms type: MS2
Ion mode: POSITIVE
Ionization: ESI
Collision energy: 20
Column name: Acquity CSHC18
Retention time: 0.631 min
Base peak: 253.09312
Precursor m/z: 253.09312
Precursor type: [M+H]+
m/z	relative intensity
69.034	3
71.0496	6
73.0288	7
99.0442	16
110.035	7
117.0547	26
119.0353	6
136.0617	5
137.0458	999
137.0652	8
