Mass spectrum: L-Dopa; LC-ESI-ITFT; MS2; CE: 60;  [M+H]+
Name: L-Dopa
Class: Organic acids and derivatives; Carboxylic acids and derivatives; Amino acids, peptides, and analogues
Formula: C9H11NO4
Exact mass: 197.06881
SMILES: N[C@@H](CC1=CC(O)=C(O)C=C1)C(O)=O
InChI: InChI=1S/C9H11NO4/c10-6(9(13)14)3-5-1-2-7(11)8(12)4-5/h1-2,4,6,11-12H,3,10H2,(H,13,14)/t6-/m0/s1
Instrument: Thermo Scientific Q-Exactive Focus
Instrument type: LC-ESI-ITFT
Ms type: MS2
Ion mode: POSITIVE
Ionization: ESI
Collision energy: 60
Column name: Acquity CSHC18
Retention time: 2.018 min
Base peak: 198.07608
Precursor m/z: 198.07608
Precursor type: [M+H]+
m/z	relative intensity
51.0235	375
53.0391	455
63.0234	354
65.039	999
77.0389	226
79.0546	359
81.0338	215
89.0388	408
95.0494	802
105.0449	169
