Mass spectrum: OXOADIPATE; LC-ESI-QTOF; MS2; CE: 40;  [M-H]-
Name: OXOADIPATE
Class: NA
Formula: C6H8O5
Exact mass: 160.03717
SMILES: OC(=O)CCCC(=O)C(O)=O
InChI: InChI=1S/C6H8O5/c7-4(6(10)11)2-1-3-5(8)9/h1-3H2,(H,8,9)(H,10,11)
Instrument: Agilent 6530Â Q-TOF LC/MS
Instrument type: LC-ESI-QTOF
Ms type: MS2
Ion mode: NEGATIVE
Ionization: ESI
Collision energy: 40
Column name: NA
Retention time: 0.200 min
Base peak: 159.03250
Precursor m/z: 159.03250
Precursor type: [M-H]-
Precursor intensity: 128
m/z	relative intensity
41.0184	206
43.0275	443
59.0164	999
