Mass spectrum: Galactitol; ESI-TOF; MS2; CE: 0.6458333;  [M+H]+
Name: Galactitol
Class: NA
Formula: C6H14O6
Exact mass: 182.07904
SMILES: OCC(O)C(O)C(O)C(O)CO
InChI: InChI=1S/C6H14O6/c7-1-3(9)5(11)6(12)4(10)2-8/h3-12H,1-2H2
Instrument: waters xevo g2 TOF
Instrument type: ESI-TOF
Ms type: MS2
Ion mode: POSITIVE
Ionization: ESI
Collision energy: 0.6458333
Column name: Acquity CSHC18
Retention time: 0.556 min
Base peak: 183.08704
Precursor m/z: 183.08704
Precursor type: [M+H]+
m/z	relative intensity
69.0349	260
71.05	2
72.9841	28
81.0346	156
83.0502	280
84.0525	2
85.0298	216
91.0402	2
97.9692	2
99.0108	272
102.0163	180
103.04	2
103.9568	2
110.0134	93
111.0334	450
111.5238	34
112.0053	67
112.9918	121
114.9715	221
117.0554	2
120.0269	935
122.5295	2
126.9487	192
129.0531	136
130.059	2
131.0329	8
131.5348	2
132.0274	64
132.9594	181
136.9768	11
137.9942	58
139.5209	2
140.0124	220
140.5408	2
144.9597	142
147.049	286
147.5338	21
148.0712	2
153.971	65
154.9676	2
156.0376	222
157.9914	133
158.9981	82
161.0134	45
164.0248	2
165.0765	2
166.0797	2
169.967	208
171.1271	2
172.9755	42
173.962	471
174.9691	95
175.9785	100
179.125	2
180.9829	2
183.0872	2
184.0372	26
188.0947	9
189.0401	153
190.1001	2
193.0558	2
194.0722	2
194.5737	2
195.073	2
199.9773	205
201.042	2
202.0617	256
202.5637	35
203.0435	47
204.0587	2
204.5613	2
205.069	363
206.0304	222
207.0741	2
209.0491	2
209.5505	2
210.0478	2
210.5485	2
211.048	2
211.549	2
212.0465	2
212.5474	2
213.0454	2
214.0447	2
217.9894	26
218.9963	105
225.9949	50
232.0025	48
232.444	60
233.0138	14
234.0037	43
235.0107	35
235.9993	999
237.0064	958
237.5073	2
238.0084	63
239.0081	110
252.0138	33
253.0509	2
254.0093	989
255.0115	2
267.066	31
268.0257	130
277.0253	2
282.0042	2
283.0108	2
283.9125	18
285.0123	2
292.025	164
293.0649	15
293.6016	2
296.0197	2
303.8855	2
318.9999	45
319.5571	2
320.0405	2
322.0355	763
323.0367	97
354.5029	2
381.9627	2
389.1242	415
390.1282	2
403.1123	191
409.0812	2
414.0838	2
415.0895	2
416.0775	15
417.0891	2
418.0787	376
419.0841	300
420.0845	2
421.0867	58
423.0827	2
439.0912	2
442.0356	2
470.9897	2
471.9968	2
475.9933	2
482.9901	2
500.001	2
501.0845	2
