Mass spectrum: Isorhamnetin; LC-ESI-QTOF; MS2; CE: 50eV;  [M-H]-
Name: Isorhamnetin
Class: Flavonol
Formula: C16H12O7
Exact mass: 316.0583
SMILES: COC1=C(C=CC(=C1)C2=C(C(=O)C3=C(C=C(C=C3O2)O)O)O)O
InChI: InChI=1S/C16H12O7/c1-22-11-4-7(2-3-9(11)18)16-15(21)14(20)13-10(19)5-8(17)6-12(13)23-16/h2-6,17-19,21H,1H3
Instrument: TIMS-TOF Pro, Bruker Daltonik; Elute UHPLC System, Bruker Daltonik
Instrument type: LC-ESI-QTOF
Ms type: MS2
Ion mode: NEGATIVE
Ionization: ESI
Collision energy: 50eV
Column name: Acquity CSHC18
Retention time: 7.596 min
Base peak: 315.0496
Precursor m/z: 315.0496
Precursor type: [M-H]-
Precursor intensity: 417596.2
m/z	relative intensity
18.798	1
24.0965	1
39.9901	1
44.4577	1
57.1418	1
63.0224	86
64.0252	2
65.0029	49
79.0178	2
80.0259	4
83.0125	55
84.0154	1
84.9923	1
91.019	3
92.0251	2
93.0337	2
94.005	8
95.012	7
95.2027	1
96.0198	4
97.4745	1
104.029	1
107.0124	88
108.0195	101
108.3622	1
109.028	3
109.8593	1
116.0575	1
117.7709	1
119.0113	5
120.0196	17
121.0288	2
121.9986	4
123.0056	1
124.0131	2
133.9971	1
135.0046	10
136.016	15
137.02	1
140.3772	1
144.0551	1
145.9385	2
146.795	1
148.0144	49
148.4425	1
149.0174	2
149.993	1
150.778	1
151.0027	23
151.2546	1
151.4661	1
152.0099	3
153.0127	1
153.9523	1
155.0498	3
156.4568	2
158.0346	1
160.0149	2
160.8817	1
162.0297	1
163.0026	21
164.0107	14
164.4754	1
167.0495	1
169.0259	1
170.036	2
170.8408	1
172.0507	2
174.0252	2
175.0355	1
176.0068	1
176.7523	1
181.7999	1
183.0415	3
184.0433	1
185.0222	1
187.0372	1
188.0067	1
189.0177	2
191.2767	1
193.5337	1
194.9159	1
199.0407	1
203.0312	1
213.4905	1
215.0392	1
227.0284	1
230.6707	1
244.0321	1
255.0252	2
256.0334	1
268.4107	1
271.0234	3
272.0289	1
299.0211	1
299.6786	1
299.9516	2
300.0226	581
300.1892	1
300.252	1
300.3668	1
300.5253	3
300.5991	1
300.7477	1
300.9081	1
301.0257	48
301.179	1
301.7648	1
302.0306	4
310.2793	1
314.0373	1
314.7922	1
314.9162	1
315.0468	999
315.2175	1
315.3099	1
315.4266	1
315.5479	6
