Mass spectrum: Linoleic acid; LC-ESI-QTOF; MS2; CE: 20-40eV;  [M+H]+
Name: Linoleic acid
Class: Fatty acid
Formula: C18H32O2
Exact mass: 280.2402
SMILES: CCCCCC(=C(CC(=C(CCCCCCCC(=O)O)[H])[H])[H])[H]
InChI: InChI=1S/C18H32O2/c1-2-3-4-5-6-7-8-9-10-11-12-13-14-15-16-17-18(19)20/h6-7,9-10H,2-5,8,11-17H2,1H3,(H,19,20)
Instrument: Impact II, Bruker; Dionex 3000, Thermo Scientific
Instrument type: LC-ESI-QTOF
Ms type: MS2
Ion mode: POSITIVE
Ionization: ESI
Collision energy: 20-40eV
Column name: Acquity CSHC18
Retention time: 24.038 min
Base peak: 281.2462
Precursor m/z: 281.2462
Precursor type: [M+H]+
Precursor intensity: 160665.4
m/z	relative intensity
95.066	6
97.0815	7
98.0842	9
99.0611	9
101.0767	10
105.0557	15
109.0817	16
110.0847	18
111.0974	18
112.1002	19
113.0765	27
123.0967	37
124.1006	37
125.1136	41
137.1129	51
138.1157	64
141.108	70
151.1286	70
152.133	71
155.1229	79
165.1452	92
179.1602	104
180.1633	143
193.1764	289
197.1708	303
221.207	779
235.2223	999
