Mass spectrum: H-Tyr-Ile-OH; LC-ESI-QTOF; MS2; CE: 31.79;  [2M+H]+
Name: H-Tyr-Ile-OH
Class: NA
Formula: C15H22N2O4
Exact mass: 294.1580
SMILES: CCC(C)C(C(=O)O)NC(=O)C(CC1=CC=C(C=C1)O)N
InChI: InChI=1S/C15H22N2O4/c1-3-9(2)13(15(20)21)17-14(19)12(16)8-10-4-6-11(18)7-5-10/h4-7,9,12-13,18H,3,8,16H2,1-2H3,(H,17,19)(H,20,21)
Instrument: Bruker MicrOTOF-Q
Instrument type: LC-ESI-QTOF
Ms type: MS2
Ion mode: POSITIVE
Ionization: ESI
Collision energy: 31.79
Column name: Acquity CSHC18
Retention time: NA
Base peak: 589.3232
Precursor m/z: 589.3232
Precursor type: [2M+H]+
m/z	relative intensity
157.13	2
159.24	3
172.38	3
198.75	2
221.16	3
231.15	2
232.13	21
233.13	5
236.13	23
236.19	4
248.96	2
249.16	219
250.07	2
250.15	115
250.5	2
250.55	2
251.15	12
254.11	3
260.12	6
266.15	4
277.15	16
277.91	2
278.03	2
278.14	112
279.14	18
293.66	3
294.23	2
294.98	3
295.16	999
295.41	3
295.58	3
295.65	2
295.83	3
296.17	196
297.17	12
298.18	4
349.42	2
386.27	3
432.1	4
510.7	2
649.34	2
