Mass spectrum: DETHIOBIOTIN; LC-ESI-QFT; MS2; CE: 30eV;  [M+H]+
Name: DETHIOBIOTIN
Class: NA
Formula: C10H18N2O3
Exact mass: 214.13174
SMILES: C[C@@H]1NC(=O)N[C@@H]1CCCCCC(O)=O
InChI: InChI=1S/C10H18N2O3/c1-7-8(12-10(15)11-7)5-3-2-4-6-9(13)14/h7-8H,2-6H2,1H3,(H,13,14)(H2,11,12,15)/t7-,8+/m0/s1
Instrument: Q-Exactive Orbitrap, Thermo Scientfic; Ultimate 3000 HPLC, Thermo Scientfic
Instrument type: LC-ESI-QFT
Ms type: MS2
Ion mode: POSITIVE
Ionization: ESI
Collision energy: 30eV
Column name: Acquity CSHC18
Retention time: 6.900 min
Base peak: 215.1390
Precursor m/z: 215.1390
Precursor type: [M+H]+
Precursor intensity: 137
m/z	relative intensity
54.5795	5
55.0501	6
61.1414	5
61.2887	7
62.3538	6
67.0548	40
69.0705	75
69.9346	7
70.0657	8
72.1629	6
75.3945	7
76.2252	6
93.0702	16
95.086	88
99.0556	66
109.1015	118
110.0966	8
111.0556	34
111.1172	33
111.1854	7
119.0855	7
125.0713	11
125.7501	6
133.3488	7
136.1123	94
137.0963	86
141.0006	9
151.1227	12
152.1073	15
152.6555	7
153.1022	14
154.1227	185
155.1259	10
169.1336	17
179.1179	999
180.1213	43
180.387	8
198.132	452
198.1413	9
203.7244	7
213.3435	6
215.1391	895
216.1428	34
228.5778	6
