Mass spectrum: Chlorogenic acid; ESI-TOF; MS2; CE: 6.0000000;  [M+H]+
Name: Chlorogenic acid
Class: NA
Formula: C16H18O9
Exact mass: 354.09508
SMILES: OC1CC(O)(CC(OC(=O)C=CC2=CC(O)=C(O)C=C2)C1O)C(O)=O
InChI: InChI=1S/C16H18O9/c17-9-3-1-8(5-10(9)18)2-4-13(20)25-12-7-16(24,15(22)23)6-11(19)14(12)21/h1-5,11-12,14,17-19,21,24H,6-7H2,(H,22,23)
Instrument: waters xevo g2 TOF
Instrument type: ESI-TOF
Ms type: MS2
Ion mode: POSITIVE
Ionization: ESI
Collision energy: 6.0000000
Column name: Acquity CSHC18
Retention time: 1.927 min
Base peak: 355.10308
Precursor m/z: 355.10308
Precursor type: [M+H]+
m/z	relative intensity
69.0344	4
83.0499	6
85.029	12
93.0339	7
94.0392	1
95.0497	5
96.9613	9
105.034	1
111.0445	41
112.0479	9
113.9642	15
115.0398	1
121.029	32
123.0444	56
124.0477	3
127.0391	3
129.0552	32
131.9524	1
133.0289	12
134.0342	8
137.0603	3
139.0393	42
140.0422	10
145.0288	11
146.0319	1
147.0547	2
149.0237	1
150.0312	9
151.0391	149
152.0431	12
153.0561	23
155.0343	12
157.0498	95
158.0532	3
161.0237	20
163.0393	999
164.0427	110
165.0594	30
173.0593	7
175.0607	56
177.0546	19
178.0574	1
179.0342	438
180.0376	45
181.0638	18
182.0602	1
185.0452	1
193.0502	62
195.0882	27
196.091	2
197.0528	18
198.047	1
199.0758	9
203.0552	34
207.0289	3
213.008	1
216.9605	3
227.0709	8
245.0815	20
246.0844	2
255.0651	8
256.0688	1
261.1035	4
271.061	7
273.0754	4
289.0721	5
291.0868	8
295.0614	2
307.081	33
308.0836	2
317.0647	3
319.1379	1
323.0531	1
325.0919	33
326.0958	4
329.0634	3
335.0766	89
336.0791	7
337.09	15
338.0958	2
345.2428	1
349.9735	1
351.0717	12
352.0765	3
353.0868	454
354.0909	96
355.101	119
356.1052	17
357.0588	7
