Mass spectrum: Niacinamide; LC-ESI-ITFT; MS2; CE: 60;  [M+H]+
Name: Niacinamide
Class: Organoheterocyclic compounds; Pyridines and derivatives; Pyridinecarboxylic acids and derivatives
Formula: C6H6N2O
Exact mass: 122.04801
SMILES: NC(=O)C1=CC=CN=C1
InChI: InChI=1S/C6H6N2O/c7-6(9)5-2-1-3-8-4-5/h1-4H,(H2,7,9)
Instrument: Thermo Scientific Q-Exactive Focus
Instrument type: LC-ESI-ITFT
Ms type: MS2
Ion mode: POSITIVE
Ionization: ESI
Collision energy: 60
Column name: Acquity CSHC18
Retention time: 1.301 min
Base peak: 123.05529
Precursor m/z: 123.05529
Precursor type: [M+H]+
m/z	relative intensity
50.0157	846
51.0236	999
52.0188	980
52.0314	175
53.0392	395
80.0499	130
96.0447	312
100.369	84
116.5853	87
133.5222	96
