Mass spectrum: Glycylproline; ESI-TOF; MS2; CE: 6.0000000;  [M+H]+
Name: Glycylproline
Class: NA
Formula: C7H12N2O3
Exact mass: 172.08479
SMILES: NCC(=O)N1CCCC1C(O)=O
InChI: InChI=1S/C7H12N2O3/c8-4-6(10)9-3-1-2-5(9)7(11)12/h5H,1-4,8H2,(H,11,12)
Instrument: waters xevo g2 TOF
Instrument type: ESI-TOF
Ms type: MS2
Ion mode: POSITIVE
Ionization: ESI
Collision energy: 6.0000000
Column name: Acquity CSHC18
Retention time: 0.567 min
Base peak: 173.09279
Precursor m/z: 173.09279
Precursor type: [M+H]+
m/z	relative intensity
70.0658	39
71.0696	1
113.9643	33
116.0708	679
117.0739	46
127.0868	71
128.0906	4
135.9923	3
155.0818	13
156.0643	4
173.0922	999
174.0952	95
175.0967	11
195.0741	16
228.0193	5
273.0138	1
345.1774	18
346.1778	3
367.1582	4
383.1269	1
398.0883	2
399.0961	1
570.1733	3
571.1785	2
573.1825	1
