Mass spectrum: Pyrogallol; ESI-TOF; MS2; CE: 6.0000000;  [M+H]+
Name: Pyrogallol
Class: NA
Formula: C6H6O3
Exact mass: 126.03169
SMILES: OC1=CC=CC(O)=C1O
InChI: InChI=1S/C6H6O3/c7-4-2-1-3-5(8)6(4)9/h1-3,7-9H
Instrument: waters xevo g2 TOF
Instrument type: ESI-TOF
Ms type: MS2
Ion mode: POSITIVE
Ionization: ESI
Collision energy: 6.0000000
Column name: Acquity CSHC18
Retention time: 1.018 min
Base peak: 127.03969
Precursor m/z: 127.03969
Precursor type: [M+H]+
m/z	relative intensity
81.0341	8
97.0288	19
109.0288	149
110.0341	16
113.0236	16
114.9711	14
124.9916	70
126.031	33
127.0391	445
128.0433	43
133.0299	5
137.9878	109
141.0189	17
147.0443	26
150.9943	1
159.0441	46
163.0392	33
165.0204	58
167.953	2
168.959	10
170.975	8
173.0003	35
175.0392	35
177.0547	42
179.0316	22
183.0261	24
191.034	298
192.0077	26
193.0161	174
195.9448	8
197.042	42
197.9618	46
198.9677	7
203.0338	291
204.0391	13
205.0491	60
206.0116	10
208.944	3
219.0012	195
220.0022	56
220.9772	209
222.0479	82
222.9776	5
231.0285	185
232.0327	7
235.0126	4
237.0398	28
239.0541	24
242.9993	20
246.9959	203
248.0019	18
249.0109	312
250.0168	25
251.0537	37
261.0053	10
265.034	115
267.0377	194
268.0508	10
271.0214	374
272.0234	24
274.9886	19
276.9799	60
281.0493	6
284.075	14
285.0049	2
287.009	19
288.0104	5
289.032	999
290.035	79
294.9902	2
303.0029	86
304.0084	44
304.9729	103
307.0332	53
315.0498	6
315.9898	24
321.0152	12
331.045	3
343.0152	79
344.0495	11
345.0262	59
346.0645	6
353.0263	5
355.0448	24
361.0549	11
371.038	111
371.9926	6
373.0541	164
375.0666	7
387.0343	6
389.0496	121
390.0558	15
391.0649	61
398.9794	136
399.9867	36
400.9928	82
426.9751	82
427.9809	46
428.985	14
443.979	9
444.9841	16
445.9892	10
495.0526	4
497.0658	38
504.9913	2
521.9867	10
522.9951	26
523.9996	14
541.0018	7
551.9956	11
555.0737	18
556.0757	5
567.0711	2
567.9897	3
621.0195	1
851.0316	1
