Mass spectrum: 3-Hydroxy-4-methoxybenzaldehyde; LC-ESI-QTOF; MS2; CE: 35.00;  [M+H]+
Name: 3-Hydroxy-4-methoxybenzaldehyde
Class: NA
Formula: C8H8O3
Exact mass: 152.0473
SMILES: COC1=C(C=C(C=C1)C=O)O
InChI: InChI=1S/C8H8O3/c1-11-8-3-2-6(5-9)4-7(8)10/h2-5,10H,1H3
Instrument: Bruker MicrOTOF-Q
Instrument type: LC-ESI-QTOF
Ms type: MS2
Ion mode: POSITIVE
Ionization: ESI
Collision energy: 35.00
Column name: Acquity CSHC18
Retention time: NA
Base peak: 153.0546
Precursor m/z: 153.0546
Precursor type: [M+H]+
m/z	relative intensity
146.9746	999
