Mass spectrum: Acetylcysteine; LC-ESI-ITFT; MS2; CE: 30;  [M-H]-
Name: Acetylcysteine
Class: Organic acids and derivatives; Carboxylic acids and derivatives; Amino acids, peptides, and analogues
Formula: C5H9NO3S
Exact mass: 163.03031
SMILES: CC(=O)N[C@@H](CS)C(O)=O
InChI: InChI=1S/C5H9NO3S/c1-3(7)6-4(2-10)5(8)9/h4,10H,2H2,1H3,(H,6,7)(H,8,9)/t4-/m0/s1
Instrument: Thermo Scientific Q-Exactive Focus
Instrument type: LC-ESI-ITFT
Ms type: MS2
Ion mode: NEGATIVE
Ionization: ESI
Collision energy: 30
Column name: Acquity CSHC18
Retention time: 0.925 min
Base peak: 162.02304
Precursor m/z: 162.02304
Precursor type: [M-H]-
m/z	relative intensity
57.0334	200
84.0442	999
92.5136	193
121.619	91
122.9392	94
135.5921	98
138.5575	103
152.3693	95
179.8476	110
184.8744	97
