Mass spectrum: Pipecolic acid; LC-ESI-ITFT; MS2; CE: 40;  [M+H]+
Name: Pipecolic acid
Class: Organic acids and derivatives; Carboxylic acids and derivatives; Amino acids, peptides, and analogues
Formula: C6H11NO2
Exact mass: 129.07898
SMILES: OC(=O)C1CCCCN1
InChI: InChI=1S/C6H11NO2/c8-6(9)5-3-1-2-4-7-5/h5,7H,1-4H2,(H,8,9)
Instrument: Thermo Scientific Q-Exactive Focus
Instrument type: LC-ESI-ITFT
Ms type: MS2
Ion mode: POSITIVE
Ionization: ESI
Collision energy: 40
Column name: Acquity CSHC18
Retention time: 1.463 min
Base peak: 130.08626
Precursor m/z: 130.08626
Precursor type: [M+H]+
m/z	relative intensity
55.0548	124
56.05	999
56.6059	13
65.039	16
67.0547	34
68.0499	24
69.0577	69
84.0811	580
92.5241	22
106.9062	12
