Mass spectrum: CAFFEATE; LC-ESI-QTOF; MS2; CE: 10;  [M-H]-
Name: CAFFEATE
Class: NA
Formula: C9H8O4
Exact mass: 180.04226
SMILES: OC(=O)\C=C/C1=CC=C(O)C(O)=C1
InChI: InChI=1S/C9H8O4/c10-7-3-1-6(5-8(7)11)2-4-9(12)13/h1-5,10-11H,(H,12,13)/b4-2-
Instrument: Agilent 6530Â Q-TOF LC/MS
Instrument type: LC-ESI-QTOF
Ms type: MS2
Ion mode: NEGATIVE
Ionization: ESI
Collision energy: 10
Column name: NA
Retention time: 0.200 min
Base peak: 179.03715
Precursor m/z: 179.03715
Precursor type: [M-H]-
Precursor intensity: 106
m/z	relative intensity
134.0464	351
135.0742	351
179.0487	999
