Mass spectrum: Beta-Leucine; ESI-TOF; MS2; CE: 6.0000000;  [M+H]+
Name: Beta-Leucine
Class: NA
Formula: C6H13NO2
Exact mass: 131.09463
SMILES: CC(C)C(N)CC(O)=O
InChI: InChI=1S/C6H13NO2/c1-4(2)5(7)3-6(8)9/h4-5H,3,7H2,1-2H3,(H,8,9)
Instrument: waters xevo g2 TOF
Instrument type: ESI-TOF
Ms type: MS2
Ion mode: POSITIVE
Ionization: ESI
Collision energy: 6.0000000
Column name: Acquity CSHC18
Retention time: 0.565 min
Base peak: 132.10263
Precursor m/z: 132.10263
Precursor type: [M+H]+
m/z	relative intensity
69.0711	2
72.0819	35
73.0757	2
97.0657	16
98.9631	4
101.9413	7
115.076	136
116.0795	9
119.9757	1
132.1027	999
133.106	15
134.1082	5
140.9609	2
146.1184	5
154.0842	17
163.9766	4
172.9779	47
187.9646	3
239.8875	1
301.1462	1
362.1139	1
447.2006	1
447.204	18
448.2052	4
622.2615	2
787.2759	1
