Mass spectrum: Creatine; LC-ESI-ITFT; MS2; CE: 40;  [M+H]+
Name: Creatine
Class: Organic acids and derivatives; Carboxylic acids and derivatives; Amino acids, peptides, and analogues
Formula: C4H9N3O2
Exact mass: 131.06948
SMILES: CN(CC(O)=O)C(N)=N
InChI: InChI=1S/C4H9N3O2/c1-7(4(5)6)2-3(8)9/h2H2,1H3,(H3,5,6)(H,8,9)
Instrument: Thermo Scientific Q-Exactive Focus
Instrument type: LC-ESI-ITFT
Ms type: MS2
Ion mode: POSITIVE
Ionization: ESI
Collision energy: 40
Column name: Acquity CSHC18
Retention time: 1.463 min
Base peak: 132.07675
Precursor m/z: 132.07675
Precursor type: [M+H]+
m/z	relative intensity
72.0562	999
76.588	627
85.317	653
85.8931	715
94.0567	642
115.5853	708
116.6258	649
135.379	676
137.3224	635
138.9528	638
