Mass spectrum: Nicotianoside IV; LC-ESI-QTOF; MS2; CE: 18eV;  [M+NH4]+
Name: Nicotianoside IV
Class: Diterpene
Formula: C47H76O23
Exact mass: 1008.4777
SMILES: O=C(O)CC(=O)OC[C@H]1O[C@@H](O[C@@](C)(CC\C=C(/C)CC\C=C(/C)CC\C=C(\C)CO[C@@H]2O[C@H](CO)[C@H](O[C@@H]3O[C@@H](C)[C@H](O)[C@@H](O)[C@H]3O)[C@H](O)[C@H]2O)C=C)[C@H](O)[C@@H](O)[C@@H]1O[C@@H]1O[C@@H](C)[C@H](O)[C@@H](O)[C@H]1O
InChI: InChI=1S/C47H76O23/c1-8-47(7,70-46-40(61)36(57)42(28(67-46)21-62-30(51)18-29(49)50)69-45-38(59)34(55)32(53)26(6)65-45)17-11-16-23(3)13-9-12-22(2)14-10-15-24(4)20-63-43-39(60)35(56)41(27(19-48)66-43)68-44-37(58)33(54)31(52)25(5)64-44/h8,12,15-16,25-28,31-46,48,52-61H,1,9-11,13-14,17-21H2,2-7H3,(H,49,50)/b22-12+,23-16+,24-15-/t25-,26-,27+,28+,31-,32-,33+,34+,35+,36+,37+,38+,39+,40+,41-,42+,43+,44-,45-,46-,47+/m0/s1
Instrument: Impact II qTOF
Instrument type: LC-ESI-QTOF
Ms type: MS2
Ion mode: POSITIVE
Ionization: ESI
Collision energy: 18eV
Column name: Acquity CSH C18 column (particle size 1.7 μm, column length 2.1 × 50 mm) (Waters)
Retention time: 20.9 min
Base peak: 1026.5095
Precursor m/z: 1026.5095
Precursor type: [M+NH4]+
m/z	relative intensity
147.0655	19
231.0515	15
249.0608	27
271.242	292
272.2452	50
289.2529	20
293.1232	65
309.1182	15
359.0977	32
377.1085	25
395.1183	81
396.1218	17
399.2899	31
413.1274	17
417.2997	117
418.3039	29
435.3111	17
455.1752	22
537.3068	18
541.1773	49
557.1735	17
563.3591	23
665.3532	13
683.3619	38
829.42	29
830.4267	15
1026.5095	999
