Mass spectrum: Niveusin B; LC-ESI-ITFT; MS2; CE: 50eV;  [M+H]+
Name: Niveusin B
Class: Sesquiterpenelactone; Heliangolide
Formula: C20H26O7
Exact mass: 378.1679
SMILES: C/C=C(/C)\C(=O)O[C@@H]1C[C@@]2(CC[C@@](O2)(/C(=C\[C@@H]3[C@@H]1C(=C)C(=O)O3)/CO)O)C
InChI: InChI=1S/C20H26O7/c1-5-11(2)17(22)26-15-9-19(4)6-7-20(24,27-19)13(10-21)8-14-16(15)12(3)18(23)25-14/h5,8,14-16,21,24H,3,6-7,9-10H2,1-2,4H3/b11-5-,13-8-/t14-,15-,16+,19+,20-/m1/s1
Instrument: Q Exactive Plus, ThermoFisher Scientific
Instrument type: LC-ESI-ITFT
Ms type: MS2
Ion mode: POSITIVE
Ionization: ESI
Collision energy: 50eV
Column name: Acquity CSHC18
Retention time: 7.923 min
Base peak: 379.1743
Precursor m/z: 379.1743
Precursor type: [M+H]+
Precursor intensity: 956392300
m/z	relative intensity
55.0553	162
56.772	88
63.5115	98
69.4899	94
69.9654	271
83.05	562
97.0651	153
97.4034	114
105.0703	446
131.0851	161
133.0645	163
137.0598	92
143.0848	215
145.0645	120
154.0778	142
155.0858	348
169.1017	999
171.0794	99
173.0964	187
179.0859	127
185.0953	209
187.1107	380
197.0971	834
201.0906	437
213.0916	169
215.1062	886
225.0908	444
231.1021	92
233.1178	126
238.8524	89
243.1027	791
261.1108	356
301.2278	105
313.3957	126
