Mass spectrum: 18:1-2:0 DG; ESI-TOF; MS2; CE: 0.6458333;  [M+H]+
Name: 18:1-2:0 DG
Class: NA
Formula: C23H42O5
Exact mass: 398.30322
SMILES: [H]OC([H])([H])C([H])(OC(=O)C([H])([H])[H])C([H])([H])OC(=O)C([H])([H])C([H])([H])C([H])([H])C([H])([H])C([H])([H])C([H])([H])C([H])([H])C([H])=C([H])C([H])([H])C([H])([H])C([H])([H])C([H])([H])C([H])([H])C([H])([H])C([H])([H])C([H])([H])[H]
InChI: InChI=1S/C23H42O5/c1-3-4-5-6-7-8-9-10-11-12-13-14-15-16-17-18-23(26)27-20-22(19-24)28-21(2)25/h10-11,22,24H,3-9,12-20H2,1-2H3
Instrument: waters xevo g2 TOF
Instrument type: ESI-TOF
Ms type: MS2
Ion mode: POSITIVE
Ionization: ESI
Collision energy: 0.6458333
Column name: Acquity CSHC18
Retention time: 8.986 min
Base peak: 399.31122
Precursor m/z: 399.31122
Precursor type: [M+H]+
m/z	relative intensity
69.0708	90
79.0547	26
81.0707	128
83.0863	147
85.102	22
93.0706	69
95.0863	189
97.1018	140
98.9757	65
107.0859	66
109.1017	119
111.1177	54
117.0553	439
118.0589	23
121.1019	146
123.1171	36
125.0967	18
135.1172	132
137.1336	15
139.1113	18
149.1332	59
151.1482	16
153.1289	12
163.0869	14
173.0127	105
185.0113	16
188.9852	73
190.9848	15
219.1326	4
247.2435	47
247.9984	19
265.2532	86
266.2557	14
287.0415	18
305.2388	15
321.211	999
322.2129	203
323.2139	28
325.2025	14
335.1712	29
336.1782	18
337.1824	204
338.1867	43
339.2356	314
340.2937	149
341.296	17
361.27	20
377.237	352
378.24	78
379.2392	20
381.3006	138
382.3049	35
383.3064	4
395.2439	13
