Mass spectrum: C24:1 Dihydroceramide (d18:0/24:1(15Z)); ESI-TOF; MS2; CE: 6.0000000;  [M+H]+
Name: C24:1 Dihydroceramide (d18:0/24:1(15Z))
Class: NA
Formula: C42H83NO3
Exact mass: 649.63730
SMILES: [H]OC([H])([H])C([H])(N([H])C(=O)C([H])([H])C([H])([H])C([H])([H])C([H])([H])C([H])([H])C([H])([H])C([H])([H])C([H])([H])C([H])([H])C([H])([H])C([H])([H])C([H])([H])C([H])([H])C([H])=C([H])C([H])([H])C([H])([H])C([H])([H])C([H])([H])C([H])([H])C([H])([H])C([H])([H])C([H])([H])[H])C([H])(O[H])C([H])([H])C([H])([H])C([H])([H])C([H])([H])C([H])([H])C([H])([H])C([H])([H])C([H])([H])C([H])([H])C([H])([H])C([H])([H])C([H])([H])C([H])([H])C([H])([H])C([H])([H])[H]
InChI: InChI=1S/C42H83NO3/c1-3-5-7-9-11-13-15-17-18-19-20-21-22-23-24-26-28-30-32-34-36-38-42(46)43-40(39-44)41(45)37-35-33-31-29-27-25-16-14-12-10-8-6-4-2/h17-18,40-41,44-45H,3-16,19-39H2,1-2H3,(H,43,46)
Instrument: waters xevo g2 TOF
Instrument type: ESI-TOF
Ms type: MS2
Ion mode: POSITIVE
Ionization: ESI
Collision energy: 6.0000000
Column name: Acquity CSHC18
Retention time: 12.284 min
Base peak: 650.64530
Precursor m/z: 650.64530
Precursor type: [M+H]+
m/z	relative intensity
98.9626	4
101.9653	12
139.9892	5
173.9617	10
295.1945	7
295.1952	7
295.1954	10
351.807	4
632.6346	5
650.6451	999
651.6468	6
651.6484	490
652.6524	122
653.6558	19
669.6185	51
670.1209	84
670.6225	39
677.6058	7
678.108	6
678.6056	5
703.5531	6
704.5647	16
705.5653	9
706.5643	5
736.6001	7
747.3878	5
994.4378	36
994.9392	53
995.4393	35
995.9421	19
996.4406	5
996.9336	1
1002.9245	7
1003.4268	6
1003.9289	6
1021.8969	2
