Mass spectrum: CORTISONE; LC-ESI-QFT; MS2; CE: 30eV;  [M+H]+
Name: CORTISONE
Class: NA
Formula: C21H28O5
Exact mass: 360.19367
SMILES: [H][C@@]12CC[C@](O)(C(=O)CO)[C@@]1(C)CC(=O)[C@@]1([H])[C@@]2([H])CCC2=CC(=O)CC[C@]12C
InChI: InChI=1S/C21H28O5/c1-19-7-5-13(23)9-12(19)3-4-14-15-6-8-21(26,17(25)11-22)20(15,2)10-16(24)18(14)19/h9,14-15,18,22,26H,3-8,10-11H2,1-2H3/t14-,15-,18+,19-,20-,21-/m0/s1
Instrument: Q-Exactive Orbitrap, Thermo Scientfic; Ultimate 3000 HPLC, Thermo Scientfic
Instrument type: LC-ESI-QFT
Ms type: MS2
Ion mode: POSITIVE
Ionization: ESI
Collision energy: 30eV
Column name: Acquity CSHC18
Retention time: 8.498 min
Base peak: 361.2010
Precursor m/z: 361.2010
Precursor type: [M+H]+
Precursor intensity: 155
m/z	relative intensity
58.1022	2
69.0522	8
81.0522	9
95.0677	9
107.0676	9
109.0833	10
119.0675	10
121.0831	12
123.0788	12
133.083	13
135.0986	13
137.0777	15
145.0829	15
147.0986	15
151.0934	15
157.0829	16
159.0986	16
161.0958	17
163.0935	17
165.109	18
171.0985	19
173.1142	20
179.0884	20
181.0931	22
183.0986	24
185.1143	25
187.0934	25
189.1091	26
197.1143	28
199.1299	29
201.1093	29
203.1248	30
205.1118	31
207.1089	31
209.1153	31
211.13	33
213.1089	34
215.1248	36
223.1301	36
225.1454	36
227.1246	38
229.1404	39
237.1455	39
239.1609	41
241.1402	41
243.1559	44
249.1452	55
251.143	56
255.1556	62
257.1714	71
261.1558	75
267.156	104
269.1714	110
279.1563	111
283.1517	187
285.1666	999
