Mass spectrum: 8-methylthiooctylglucosinolate; LC-ESI-QTOF; MS2; CE: 15.00;  [M-C6H10O5+H]+
Name: 8-methylthiooctylglucosinolate
Class: NA
Formula: C16H31NO6S2
Exact mass: 397.1593
SMILES: CSCCCCCCCCC(=NO)SC1C(C(C(C(O1)CO)O)O)O
InChI: InChI=1S/C16H31NO6S2/c1-24-9-7-5-3-2-4-6-8-12(17-22)25-16-15(21)14(20)13(19)11(10-18)23-16/h11,13-16,18-22H,2-10H2,1H3
Instrument: Bruker MicrOTOF-Q
Instrument type: LC-ESI-QTOF
Ms type: MS2
Ion mode: POSITIVE
Ionization: ESI
Collision energy: 15.00
Column name: Acquity CSHC18
Retention time: NA
Base peak: 236.1137
Precursor m/z: 236.1137
Precursor type: [M-C6H10O5+H]+
m/z	relative intensity
119.1085	204
121.0659	136
125.077	148
127.0545	192
131.0884	353
139.0769	142
143.0874	198
144.0966	130
145.1031	999
147.1003	142
148.0242	136
149.0936	359
153.0792	148
155.0923	136
157.0986	570
159.1152	713
160.0867	130
161.1303	223
163.1355	397
171.0575	130
172.0186	124
173.0545	173
173.1304	893
174.1424	142
175.1501	663
176.0702	241
176.1509	161
181.1174	173
183.1149	496
184.9253	235
189.0546	403
189.1617	273
190.2137	179
191.1379	688
193.1197	608
199.1514	725
201.1286	521
202.1209	142
217.1571	266
218.1552	192
219.0832	124
219.1418	639
235.1666	279
236.1697	148
236.2702	148
237.1475	297
245.0343	148
256.0152	179
325.2197	186
