Mass spectrum: PHENYLETHANOLAMINE; LC-ESI-QTOF; MS2; CE: 10;  [M+H]+
Name: PHENYLETHANOLAMINE
Class: NA
Formula: C8H11NO
Exact mass: 137.08406
SMILES: NCC(O)C1=CC=CC=C1
InChI: InChI=1S/C8H11NO/c9-6-8(10)7-4-2-1-3-5-7/h1-5,8,10H,6,9H2
Instrument: Agilent 6530Â Q-TOF LC/MS
Instrument type: LC-ESI-QTOF
Ms type: MS2
Ion mode: POSITIVE
Ionization: ESI
Collision energy: 10
Column name: NA
Retention time: 0.200 min
Base peak: 138.09089
Precursor m/z: 138.09089
Precursor type: [M+H]+
Precursor intensity: 182.5
m/z	relative intensity
42.0442	35
51.0236	48
77.0686	53
78.0503	55
79.0509	65
80.0451	71
91.0819	72
92.0526	85
93.0975	85
102.0597	143
103.3658	167
104.064	171
118.082	519
119.0805	628
120.4754	712
121.1483	796
138.0694	999
