Mass spectrum: L-Cystine; LC-ESI-ITFT; MS2; CE: 20;  [M-H]-
Name: L-Cystine
Class: Organic acids and derivatives; Carboxylic acids and derivatives; Amino acids, peptides, and analogues
Formula: C6H12N2O4S2
Exact mass: 240.02385
SMILES: N[C@@H](CSSC[C@H](N)C(O)=O)C(O)=O
InChI: InChI=1S/C6H12N2O4S2/c7-3(5(9)10)1-13-14-2-4(8)6(11)12/h3-4H,1-2,7-8H2,(H,9,10)(H,11,12)/t3-,4-/m0/s1
Instrument: Thermo Scientific Q-Exactive Focus
Instrument type: LC-ESI-ITFT
Ms type: MS2
Ion mode: NEGATIVE
Ionization: ESI
Collision energy: 20
Column name: Acquity CSHC18
Retention time: 0.646 min
Base peak: 239.01657
Precursor m/z: 239.01657
Precursor type: [M-H]-
m/z	relative intensity
64.9513	99
71.9901	49
74.0058	999
86.0235	151
92.5138	7
105.1209	3
117.9956	46
120.0113	796
151.9834	51
223.0278	21
