Mass spectrum: Deoxyloganic acid; LC-ESI-QTOF; MS2; CE: 20-40eV;  [M+NH4]+
Name: Deoxyloganic acid
Class: O-glycoside coumpond
Formula: C16H24O9
Exact mass: 360.1420
SMILES: CC1CCC2C(=COC(C12)OC3C(C(C(C(CO)O3)O)O)O)C(=O)O
InChI: InChI=1S/C16H24O9/c1-6-2-3-7-8(14(21)22)5-23-15(10(6)7)25-16-13(20)12(19)11(18)9(4-17)24-16/h5-7,9-13,15-20H,2-4H2,1H3,(H,21,22)
Instrument: Impact II, Bruker; Dionex 3000, Thermo Scientific
Instrument type: LC-ESI-QTOF
Ms type: MS2
Ion mode: POSITIVE
Ionization: ESI
Collision energy: 20-40eV
Column name: Acquity CSHC18
Retention time: 4.498 min
Base peak: 378.1768
Precursor m/z: 378.1768
Precursor type: [M+NH4]+
Precursor intensity: 7513.25
m/z	relative intensity
97.0467	318
105.0433	338
107.0668	395
121.0837	465
183.1203	999
