Mass spectrum: Veratric acid; LC-ESI-QTOF; MS2; CE: 15;  [M-H]-
Name: Veratric acid
Class: NA
Formula: C9H10O4
Exact mass: 182.0579
SMILES: COC1=C(C=C(C=C1)C(=O)O)OC
InChI: InChI=1S/C9H10O4/c1-12-7-4-3-6(9(10)11)5-8(7)13-2/h3-5H,1-2H3,(H,10,11)
Instrument: Bruker MicrOTOF-Q
Instrument type: LC-ESI-QTOF
Ms type: MS2
Ion mode: NEGATIVE
Ionization: ESI
Collision energy: 15
Column name: Acquity CSHC18
Retention time: NA
Base peak: 181.0506
Precursor m/z: 181.0506
Precursor type: [M-H]-
m/z	relative intensity
107.0145	734
111.008	421
122.0374	999
123.0146	107
124.0111	47
137.0595	177
138.0298	109
