Mass spectrum: 3-(1,3-benzodioxol-5-yl)-7-[(2S,3R,4S,5S,6R)-6-[[(2S,3R,4R)-3,4-dihydroxy-4-(hydroxymethyl)oxolan-2-yl]oxymethyl]-3,4,5-trihydroxyoxan-2-yl]oxy-6-methoxychromen-4-one; LC-ESI-QTOF; MS2; CE: 20-40eV;  [M+H]+
Name: 3-(1,3-benzodioxol-5-yl)-7-[(2S,3R,4S,5S,6R)-6-[[(2S,3R,4R)-3,4-dihydroxy-4-(hydroxymethyl)oxolan-2-yl]oxymethyl]-3,4,5-trihydroxyoxan-2-yl]oxy-6-methoxychromen-4-one
Class: Flavonoid O-glycosides
Formula: C28H30O15
Exact mass: 606.1585
SMILES: COC=1C=C2C(=CC1OC3(C(C(C(C(COC4(C(C(CO)(CO4)O)(O)[H])[H])(O3)[H])(O)[H])(O)[H])(O)[H])[H])OC=C(C=5C=CC6=C(C5)OCO6)C2=O
InChI: InChI=1S/C28H30O15/c1-36-17-5-13-16(37-7-14(21(13)30)12-2-3-15-18(4-12)41-11-40-15)6-19(17)42-26-24(33)23(32)22(31)20(43-26)8-38-27-25(34)28(35,9-29)10-39-27/h2-7,20,22-27,29,31-35H,8-11H2,1H3
Instrument: Impact II, Bruker; Dionex 3000, Thermo Scientific
Instrument type: LC-ESI-QTOF
Ms type: MS2
Ion mode: POSITIVE
Ionization: ESI
Collision energy: 20-40eV
Column name: Acquity CSHC18
Retention time: 6.408 min
Base peak: 607.1662
Precursor m/z: 607.1662
Precursor type: [M+H]+
Precursor intensity: 13645.88
m/z	relative intensity
209.1182	24
283.0614	24
284.0645	26
295.0607	27
297.0747	27
309.0712	29
311.0557	31
313.0711	38
314.0736	38
323.0933	40
325.0712	41
333.0756	45
337.072	46
338.0759	46
343.0813	48
379.0818	62
380.0852	67
397.092	69
415.1018	85
416.1096	93
439.1015	96
440.1074	125
445.1104	179
457.1132	185
475.125	242
476.1242	280
477.1244	625
561.1213	999
607.1658	24
