Mass spectrum: Stearoylethanolamide; LC-ESI-ITFT; MS2; CE: 60;  [M+H]+
Name: Stearoylethanolamide
Class: Organic nitrogen compounds; Organonitrogen compounds; Amines
Formula: C20H41NO2
Exact mass: 327.31373
SMILES: CCCCCCCCCCCCCCCCCC(=O)NCCO
InChI: InChI=1S/C20H41NO2/c1-2-3-4-5-6-7-8-9-10-11-12-13-14-15-16-17-20(23)21-18-19-22/h22H,2-19H2,1H3,(H,21,23)
Instrument: Thermo Scientific Q-Exactive Focus
Instrument type: LC-ESI-ITFT
Ms type: MS2
Ion mode: POSITIVE
Ionization: ESI
Collision energy: 60
Column name: Acquity CSHC18
Retention time: 1.753 min
Base peak: 328.32101
Precursor m/z: 328.32101
Precursor type: [M+H]+
m/z	relative intensity
53.0027	58
55.0547	249
57.0704	792
62.0605	999
67.0546	325
71.0859	73
79.0545	76
81.0702	104
92.5241	65
95.0857	90
