Mass spectrum: Succinylacetone; LC-ESI-ITFT; MS2; CE: 40;  [M-H]-
Name: Succinylacetone
Class: Organic acids and derivatives; Keto acids and derivatives; Medium-chain keto acids and derivatives
Formula: C7H10O4
Exact mass: 158.05791
SMILES: CC(=O)CC(=O)CCC(O)=O
InChI: InChI=1S/C7H10O4/c1-5(8)4-6(9)2-3-7(10)11/h2-4H2,1H3,(H,10,11)
Instrument: Thermo Scientific Q-Exactive Focus
Instrument type: LC-ESI-ITFT
Ms type: MS2
Ion mode: NEGATIVE
Ionization: ESI
Collision energy: 40
Column name: Acquity CSHC18
Retention time: 1.476 min
Base peak: 157.05063
Precursor m/z: 157.05063
Precursor type: [M-H]-
m/z	relative intensity
57.0334	999
69.0333	63
71.049	307
75.1979	54
75.2941	59
76.195	52
89.506	55
123.0253	63
135.7379	56
165.7424	56
