Mass spectrum: C20 Ceramide (d18:1/20:0); ESI-TOF; MS2; CE: 0.6458333;  [M+H]+
Name: C20 Ceramide (d18:1/20:0)
Class: NA
Formula: C38H75NO3
Exact mass: 593.57470
SMILES: [H]OC([H])([H])C([H])(N([H])C(=O)C([H])([H])C([H])([H])C([H])([H])C([H])([H])C([H])([H])C([H])([H])C([H])([H])C([H])([H])C([H])([H])C([H])([H])C([H])([H])C([H])([H])C([H])([H])C([H])([H])C([H])([H])C([H])([H])C([H])([H])C([H])([H])C([H])([H])[H])C([H])(O[H])C([H])=C([H])C([H])([H])C([H])([H])C([H])([H])C([H])([H])C([H])([H])C([H])([H])C([H])([H])C([H])([H])C([H])([H])C([H])([H])C([H])([H])C([H])([H])C([H])([H])[H]
InChI: InChI=1S/C38H75NO3/c1-3-5-7-9-11-13-15-17-18-19-20-22-24-26-28-30-32-34-38(42)39-36(35-40)37(41)33-31-29-27-25-23-21-16-14-12-10-8-6-4-2/h31,33,36-37,40-41H,3-30,32,34-35H2,1-2H3,(H,39,42)
Instrument: waters xevo g2 TOF
Instrument type: ESI-TOF
Ms type: MS2
Ion mode: POSITIVE
Ionization: ESI
Collision energy: 0.6458333
Column name: Acquity CSHC18
Retention time: 11.698 min
Base peak: 594.58270
Precursor m/z: 594.58270
Precursor type: [M+H]+
m/z	relative intensity
252.2689	59
264.2688	628
265.2716	133
282.2794	82
292.7583	18
298.7584	18
350.2757	14
376.2895	49
558.5613	37
559.5649	14
576.5725	342
577.5758	148
594.5829	66
595.5853	27
596.5892	5
613.5568	66
614.0576	51
614.5588	26
616.5652	999
617.5689	433
618.5713	95
632.5328	11
678.5351	56
679.5415	21
682.9304	12
694.508	4
910.3452	59
910.8453	79
911.3484	50
911.8494	21
1188.1515	4
