Mass spectrum: beta-Tomatine; LC-ESI-QTOF; MS2; CE: -10,-35,-60V;  [M-H]-
Name: beta-Tomatine
Class: glycoalkaloid
Formula: C50H83NO21
Exact mass: 1033.5458
SMILES: CC1CCC2(C(C3C(O2)CC4C3(CCC5C4CCC6C5(CCC(C6)OC7C(C(C(C(O7)CO)OC8C(C(C(C(O8)CO)O)OC9C(C(C(CO9)O)O)O)OC2C(C(C(C(O2)CO)O)O)O)O)O)C)C)C)NC1
InChI: InChI=1S/C50H83NO21/c1-20-7-12-50(51-15-20)21(2)32-28(72-50)14-26-24-6-5-22-13-23(8-10-48(22,3)25(24)9-11-49(26,32)4)65-45-40(63)37(60)41(31(18-54)68-45)69-47-43(71-46-39(62)36(59)34(57)29(16-52)66-46)42(35(58)30(17-53)67-47)70-44-38(61)33(56)27(55)19-64-44/h20-47,51-63H,5-19H2,1-4H3
Instrument: TripleToF5600, Sciex; Acquity, Waters
Instrument type: LC-ESI-QTOF
Ms type: MS2
Ion mode: NEGATIVE
Ionization: ESI
Collision energy: -10,-35,-60V
Column name: Acquity CSHC18
Retention time: 6.761 min
Base peak: 1032.5260
Precursor m/z: 1032.5260
Precursor type: [M-H]-
Precursor intensity: 3029399
m/z	relative intensity
83.0108	4
161.0415	6
740.4491	9
872.4714	18
900.4954	104
902.5046	119
1032.5427	871
1033.5386	999
