Mass spectrum: 8-Hydroxy Kaempferol-3,8,4'-O-methylether; LC-ESI-QTOF; MS2; CE: 50eV;  [M-H]-
Name: 8-Hydroxy Kaempferol-3,8,4'-O-methylether
Class: Flavonol
Formula: C18H16O7
Exact mass: 344.0896
SMILES: COC1=CC=C(C=C1)C2=C(C(=O)C3=C(O2)C(=C(C=C3O)O)OC)OC
InChI: InChI=1S/C18H16O7/c1-22-10-6-4-9(5-7-10)15-18(24-3)14(21)13-11(19)8-12(20)16(23-2)17(13)25-15/h4-8,19-20H,1-3H3
Instrument: TIMS-TOF Pro, Bruker Daltonik; Elute UHPLC System, Bruker Daltonik
Instrument type: LC-ESI-QTOF
Ms type: MS2
Ion mode: NEGATIVE
Ionization: ESI
Collision energy: 50eV
Column name: Acquity CSHC18
Retention time: 9.386 min
Base peak: 343.0762
Precursor m/z: 343.0762
Precursor type: [M-H]-
Precursor intensity: 22138.33
m/z	relative intensity
65.0029	15
85.2003	6
89.0055	6
94.0035	18
97.5104	6
102.6075	11
106.0035	11
116.2734	9
117.4324	5
120.9907	5
121.9987	34
122.6788	4
130.0388	21
132.0169	13
134.0008	12
135.7623	6
140.9364	5
142.0411	37
145.0257	5
148.9848	13
149.993	22
154.0404	89
156.0193	98
157.0648	7
158.0346	13
160.5919	4
164.3441	6
165.8818	5
167.2656	5
169.026	18
170.0319	39
171.047	7
173.4766	8
176.9788	6
178.8864	10
182.0339	6
185.0565	8
186.0294	29
193.1523	5
196.0115	5
197.0615	14
198.0277	41
200.0564	6
203.7801	8
209.8729	5
214.0208	10
225.0136	8
227.0285	4
229.0452	4
242.0166	30
243.2544	7
255.325	7
270.0147	36
271.0183	5
285.0353	54
286.0398	8
313.0295	993
313.3169	5
313.8977	4
314.0346	116
315.0357	13
327.9892	6
328.0521	999
328.472	11
328.5435	6
328.7564	6
328.9465	8
329.0581	157
330.057	19
343.0762	435
343.3946	4
343.5202	5
