Mass spectrum: 7?-hydroxycholesterol; ESI-TOF; MS2; CE: 0.6458333;  [M+H]+
Name: 7?-hydroxycholesterol
Class: NA
Formula: C27H46O2
Exact mass: 402.34978
SMILES: [H]OC2([H])(C([H])=C1C([H])([H])C([H])(O[H])C([H])([H])C([H])([H])C1(C([H])([H])[H])C3([H])(C([H])([H])C([H])([H])C4(C([H])([H])[H])(C([H])(C([H])([H])C([H])([H])C4([H])(C23([H])))C([H])(C([H])([H])[H])C([H])([H])C([H])([H])C([H])([H])C([H])(C([H])([H])[H])C([H])([H])[H])))
InChI: InChI=1S/C27H46O2/c1-17(2)7-6-8-18(3)21-9-10-22-25-23(12-14-27(21,22)5)26(4)13-11-20(28)15-19(26)16-24(25)29/h16-18,20-25,28-29H,6-15H2,1-5H3
Instrument: waters xevo g2 TOF
Instrument type: ESI-TOF
Ms type: MS2
Ion mode: POSITIVE
Ionization: ESI
Collision energy: 0.6458333
Column name: Acquity CSHC18
Retention time: 9.568 min
Base peak: 403.35778
Precursor m/z: 403.35778
Precursor type: [M+H]+
m/z	relative intensity
69.0711	31
79.0549	17
83.0861	53
95.0856	93
105.0707	116
109.1019	133
117.0702	52
129.0714	12
130.0769	11
131.0859	105
133.1017	168
135.1176	74
140.9863	19
145.1018	294
146.1046	25
147.1174	206
148.1217	22
149.1332	38
157.1019	68
159.1171	398
160.1209	26
162.1352	14
165.1642	17
171.1172	35
173.1331	163
175.1478	49
179.1782	12
185.1327	44
187.1488	61
193.1949	19
199.1487	103
200.1535	10
201.1647	32
207.2095	12
213.1647	110
214.1674	18
219.2123	48
227.1802	49
233.2273	14
241.1955	62
247.2429	28
255.211	84
259.2431	25
261.2593	4
324.2307	54
325.2896	16
339.1991	38
367.337	999
368.3404	300
383.3323	36
384.3371	10
385.347	357
386.3515	53
