Mass spectrum: Kaempferol 3-rutinoside; LC-ESI-QFT; MS2; CE: NCE_15_30_75;  [M-H]-
Name: Kaempferol 3-rutinoside
Class: NA
Formula: C27H30O15
Exact mass: 594.1585
SMILES: CC1C(C(C(C(O1)OCC2C(C(C(C(O2)OC3=C(OC4=CC(=CC(=C4C3=O)O)O)C5=CC=C(C=C5)O)O)O)O)O)O)O
InChI: InChI=1S/C27H30O15/c1-9-17(31)20(34)22(36)26(39-9)38-8-15-18(32)21(35)23(37)27(41-15)42-25-19(33)16-13(30)6-12(29)7-14(16)40-24(25)10-2-4-11(28)5-3-10/h2-7,9,15,17-18,20-23,26-32,34-37H,8H2,1H3
Instrument: Thermo_Qexactive_Plus
Instrument type: LC-ESI-QFT
Ms type: MS2
Ion mode: NEGATIVE
Ionization: ESI
Collision energy: NCE_15_30_75
Column name: Acquity CSHC18
Retention time: 4.885 min
Base peak: 593.1526
Precursor m/z: 593.1526
Precursor type: [M-H]-
Precursor intensity: 485943100
m/z	relative intensity
60.0492	5
70.8565	5
78.0674	5
125.0236	6
151.0028	6
163.0031	6
169.0132	6
171.0446	6
171.4931	6
174.0314	6
175.0385	6
178.9978	7
187.0401	7
193.0136	7
195.0451	7
197.0604	8
199.0405	8
213.0545	8
227.0351	8
229.0507	9
239.0358	9
241.05	10
243.0287	10
255.0287	10
256.0361	12
257.0454	12
257.7742	21
267.0292	30
269.0459	37
283.0254	40
284.0329	43
285.0413	46
286.0456	56
292.0301	106
308.6343	110
327.0537	666
355.5133	727
593.151	999
