Mass spectrum: Apigenin; LC-ESI-QTOF; MS2; CE: 50eV;  [M-H]-
Name: Apigenin
Class: Flavone
Formula: C15H10O5
Exact mass: 270.0528
SMILES: C1=CC(=CC=C1C2=CC(=O)C3=C(C=C(C=C3O2)O)O)O
InChI: InChI=1S/C15H10O5/c16-9-3-1-8(2-4-9)13-7-12(19)15-11(18)5-10(17)6-14(15)20-13/h1-7,16-18H
Instrument: TIMS-TOF Pro, Bruker Daltonik; Elute UHPLC System, Bruker Daltonik
Instrument type: LC-ESI-QTOF
Ms type: MS2
Ion mode: NEGATIVE
Ionization: ESI
Collision energy: 50eV
Column name: Acquity CSHC18
Retention time: 7.345 min
Base peak: 269.0414
Precursor m/z: 269.0414
Precursor type: [M-H]-
Precursor intensity: 437263.6
m/z	relative intensity
34.0958	1
41.0025	13
43.0725	1
43.6071	1
47.4631	1
55.7052	1
57.451	1
60.158	1
63.0224	22
64.0265	2
65.0016	82
65.167	1
66.0059	3
67.0166	2
70.506	1
77.0373	1
79.0178	7
79.8173	1
83.0125	29
83.7843	1
84.5336	1
89.0189	5
93.0322	7
94.0371	3
99.24	1
102.046	1
105.0301	2
106.908	1
107.0124	33
108.0162	3
108.9078	1
114.9408	1
116.0252	3
116.8078	1
116.9698	1
117.0328	999
117.2991	1
117.8445	1
118.0063	23
119.0405	1
121.0271	16
123.0091	1
128.1434	1
129.0338	2
130.0405	2
133.2789	1
136.6511	1
138.8198	1
140.5641	1
142.1726	1
147.2634	2
149.0213	17
150.0239	1
151.0007	21
152.0041	1
154.0384	1
155.0479	1
158.0326	1
159.0451	3
162.0016	1
164.5341	1
170.3651	1
173.0552	1
180.0545	3
182.036	2
183.0415	3
185.02	1
201.0523	10
225.0514	16
227.0332	4
228.0345	1
249.8422	1
268.7182	1
269.0388	64
269.2528	2
269.4703	3
