Mass spectrum: D-Ribopyranose; LC-ESI-QTOF; MS2; CE: 15.00;  [M+Na]+
Name: D-Ribopyranose
Class: NA
Formula: C5H10O5
Exact mass: 150.0528
SMILES: C1C(C(C(C(O1)O)O)O)O
InChI: InChI=1S/C5H10O5/c6-2-1-10-5(9)4(8)3(2)7/h2-9H,1H2
Instrument: Bruker MicrOTOF-Q
Instrument type: LC-ESI-QTOF
Ms type: MS2
Ion mode: POSITIVE
Ionization: ESI
Collision energy: 15.00
Column name: Acquity CSHC18
Retention time: NA
Base peak: 173.0420
Precursor m/z: 173.0420
Precursor type: [M+Na]+
m/z	relative intensity
70.7292	10
97.0216	12
108.9657	12
113.0119	19
114.053	9
114.9627	12
115.0317	57
116.0652	13
126.0539	40
132.0673	12
156.0625	9
172.0566	11
173.0419	999
174.0523	63
890.8458	10
919.4875	13
