Mass spectrum: SALICYLAMIDE; LC-ESI-QTOF; MS2; CE: 20;  [M+H]+
Name: SALICYLAMIDE
Class: NA
Formula: C7H7NO2
Exact mass: 137.04768
SMILES: NC(=O)C1=CC=CC=C1O
InChI: InChI=1S/C7H7NO2/c8-7(10)5-3-1-2-4-6(5)9/h1-4,9H,(H2,8,10)
Instrument: Agilent 6530Â Q-TOF LC/MS
Instrument type: LC-ESI-QTOF
Ms type: MS2
Ion mode: POSITIVE
Ionization: ESI
Collision energy: 20
Column name: NA
Retention time: 0.200 min
Base peak: 138.05562
Precursor m/z: 138.05562
Precursor type: [M+H]+
Precursor intensity: 87.5
m/z	relative intensity
44.0257	21
51.0342	21
52.0173	22
53.0057	22
65.2528	23
75.0222	23
77.0612	24
92.0553	31
93.0726	33
93.1971	48
94.0427	68
95.0625	70
102.0481	71
120.0549	76
121.2478	79
121.6953	150
121.9967	244
122.174	523
122.4244	770
138.0657	999
