Mass spectrum: pelargonidin; LC-ESI-ITFT; MS2; CE: 0.3;  [M]+
Name: pelargonidin
Class: anthocyanidins
Formula: [C15H11O5]+
Exact mass: 271.0601
SMILES: C1=CC(=CC=C1C2=[O+]C3=CC(=CC(=C3C=C2O)O)O)O
InChI: InChI=1S/C15H10O5/c16-9-3-1-8(2-4-9)15-13(19)7-11-12(18)5-10(17)6-14(11)20-15/h1-7H,(H3-,16,17,18,19)/p+1
Instrument: LTQ-Orbitrap XL hybrid mass spectrometer (Thermo Scientific)
Instrument type: LC-ESI-ITFT
Ms type: MS2
Ion mode: POSITIVE
Ionization: ESI
Collision energy: 0.3
Column name: Acquity CSHC18
Retention time: 6.659 min
Base peak: 271.0610
Precursor m/z: 271.0610
Precursor type: [M]+
Precursor intensity: 116789400
m/z	relative intensity
60.0193	10
60.3879	9
61.3733	9
63.4209	9
64.8542	8
69.071	10
71.8343	9
71.836	21
71.837	14
71.9912	8
76.7208	9
82.4766	8
85.7687	10
87.2822	8
94.1797	8
94.2498	9
95.5696	8
97.8709	8
111.0079	14
121.0286	92
145.0651	14
149.0237	497
159.0445	11
161.0613	7
167.6672	11
169.0653	12
173.0603	32
177.0189	49
187.0397	27
187.0761	11
190.3437	7
194.5115	7
194.5156	8
194.5211	5
194.5304	8
194.5355	8
196.0608	13
196.1407	39
196.2203	8
197.0606	37
201.0555	70
203.0712	43
215.0712	999
225.0556	40
229.0505	70
243.0663	358
253.0509	24
271.0613	201
