Mass spectrum: CMP; LC-ESI-QTOF; MS2; CE: 15 / 50;  [M-H]-
Name: CMP
Class: NA
Formula: C9H14N3O8P
Exact mass: 323.0519
SMILES: C1=CN(C(=O)N=C1N)C2C(C(C(O2)COP(=O)(O)O)O)O
InChI: InChI=1S/C9H14N3O8P/c10-5-1-2-12(9(15)11-5)8-7(14)6(13)4(20-8)3-19-21(16,17)18/h1-2,4,6-8,13-14H,3H2,(H2,10,11,15)(H2,16,17,18)
Instrument: impact II
Instrument type: LC-ESI-QTOF
Ms type: MS2
Ion mode: NEGATIVE
Ionization: ESI
Collision energy: 15 / 50
Column name: Acquity CSHC18
Retention time: 0.703 min
Base peak: 322.0447
Precursor m/z: 322.0447
Precursor type: [M-H]-
m/z	relative intensity
78.9589	999
96.9696	491
138.9802	113
322.0445	814
323.0479	102
