Mass spectrum: Testosterone; LC-ESI-ITFT; MS2; CE: 40;  [M+H]+
Name: Testosterone
Class: Lipids and lipid-like molecules; Steroids and steroid derivatives; Androstane steroids
Formula: C19H28O2
Exact mass: 288.20893
SMILES: [H][C@@]12CC[C@H](O)[C@@]1(C)CC[C@@]1([H])[C@@]2([H])CCC2=CC(=O)CC[C@]12C
InChI: InChI=1S/C19H28O2/c1-18-9-7-13(20)11-12(18)3-4-14-15-5-6-17(21)19(15,2)10-8-16(14)18/h11,14-17,21H,3-10H2,1-2H3/t14-,15-,16-,17-,18-,19-/m0/s1
Instrument: Thermo Scientific Q-Exactive Focus
Instrument type: LC-ESI-ITFT
Ms type: MS2
Ion mode: POSITIVE
Ionization: ESI
Collision energy: 40
Column name: Acquity CSHC18
Retention time: 1.467 min
Base peak: 289.21622
Precursor m/z: 289.21622
Precursor type: [M+H]+
m/z	relative intensity
79.0546	207
81.0703	179
91.0546	71
93.0702	78
95.0859	57
97.0652	999
105.0701	64
109.0651	954
119.0856	48
123.0806	95
