Mass spectrum: Bisphenol A diglycidyl ether; ESI-TOF; MS2; CE: 6.0000000;  [M+H]+
Name: Bisphenol A diglycidyl ether
Class: NA
Formula: C21H24O4
Exact mass: 340.16746
SMILES: CC(C)(C1=CC=C(OCC2CO2)C=C1)C1=CC=C(OCC2CO2)C=C1
InChI: InChI=1S/C21H24O4/c1-21(2,15-3-7-17(8-4-15)22-11-19-13-24-19)16-5-9-18(10-6-16)23-12-20-14-25-20/h3-10,19-20H,11-14H2,1-2H3
Instrument: waters xevo g2 TOF
Instrument type: ESI-TOF
Ms type: MS2
Ion mode: POSITIVE
Ionization: ESI
Collision energy: 6.0000000
Column name: Acquity CSHC18
Retention time: 3.946 min
Base peak: 341.17546
Precursor m/z: 341.17546
Precursor type: [M+H]+
m/z	relative intensity
119.0494	9
135.0809	30
145.0649	10
147.0808	10
161.096	34
173.0959	13
173.0965	25
175.0596	33
184.0652	8
190.065	31
191.1069	681
192.1106	86
193.1126	7
195.5727	10
227.0861	8
323.1614	29
325.1443	20
326.1468	2
340.1654	34
341.1736	30
358.2016	406
360.2084	10
363.1567	320
363.1569	999
364.076	12
364.1604	233
364.1613	76
365.1614	35
380.1517	9
382.2047	8
388.2118	7
394.0872	16
395.0921	11
395.1809	8
425.1273	130
426.1289	31
443.0977	21
445.0939	9
681.3448	14
