Mass spectrum: 2-Deoxy-D-ribose; LC-ESI-QTOF; MS2; CE: 21.69;  [3M-2H2O+Na]+
Name: 2-Deoxy-D-ribose
Class: NA
Formula: C5H10O4
Exact mass: 134.0579
SMILES: C(C=O)C(C(CO)O)O
InChI: InChI=1S/C5H10O4/c6-2-1-4(8)5(9)3-7/h2,4-5,7-9H,1,3H2
Instrument: Bruker MicrOTOF-Q
Instrument type: LC-ESI-QTOF
Ms type: MS2
Ion mode: POSITIVE
Ionization: ESI
Collision energy: 21.69
Column name: Acquity CSHC18
Retention time: NA
Base peak: 389.1418
Precursor m/z: 389.1418
Precursor type: [3M-2H2O+Na]+
m/z	relative intensity
139.03	16
140.06	8
141.07	12
157.04	102
159.03	12
168.65	12
187.97	16
196.07	8
213.07	20
217.12	8
229.06	57
230.06	8
236.99	8
238.98	8
245.1	8
253.07	8
255.08	411
256.09	24
257.11	20
271.07	24
271.56	8
273	999
274.09	230
275.155	20
277.14	8
278.66	16
285.06	8
299.1	8
310.17	8
315.11	12
340.8	8
345.11	49
346.16	12
347.1	8
355.09	8
371.13	205
372.12	20
373.15	8
377.86	8
387.075	24
387.53	8
388.14	12
389.416	498
390.965	55
392.16	8
393.88	16
419.97	8
627.67	12
