Mass spectrum: Ceramide(d18:0/16:0); LC-ESI-ITFT; MS2; CE: 60;  [M-H]-
Name: Ceramide(d18:0/16:0)
Class: Lipids and lipid-like molecules; Sphingolipids; Ceramides
Formula: C34H69NO3
Exact mass: 539.52775
SMILES: CCCCCCCCCCCCCCC[C@@H](O)[C@H](CO)NC(=O)CCCCCCCCCCCCCCC
InChI: InChI=1S/C34H69NO3/c1-3-5-7-9-11-13-15-17-19-21-23-25-27-29-33(37)32(31-36)35-34(38)30-28-26-24-22-20-18-16-14-12-10-8-6-4-2/h32-33,36-37H,3-31H2,1-2H3,(H,35,38)/t32-,33+/m0/s1
Instrument: Thermo Scientific Q-Exactive Focus
Instrument type: LC-ESI-ITFT
Ms type: MS2
Ion mode: NEGATIVE
Ionization: ESI
Collision energy: 60
Column name: Acquity CSHC18
Retention time: NA
Base peak: 538.52045
Precursor m/z: 538.52045
Precursor type: [M-H]-
m/z	relative intensity
57.0334	325
235.2063	127
237.2219	818
239.2377	149
253.2535	279
255.2329	61
268.2649	25
280.2644	999
281.2122	137
490.4986	64
