Mass spectrum: Guanidinosuccinic acid; ESI-TOF; MS2; CE: 0.6458333;  [M+H]+
Name: Guanidinosuccinic acid
Class: NA
Formula: C5H9N3O4
Exact mass: 175.05931
SMILES: NC(=N)NC(CC(O)=O)C(O)=O
InChI: InChI=1S/C5H9N3O4/c6-5(7)8-2(4(11)12)1-3(9)10/h2H,1H2,(H,9,10)(H,11,12)(H4,6,7,8)
Instrument: waters xevo g2 TOF
Instrument type: ESI-TOF
Ms type: MS2
Ion mode: POSITIVE
Ionization: ESI
Collision energy: 0.6458333
Column name: Acquity CSHC18
Retention time: 0.544 min
Base peak: 176.06731
Precursor m/z: 176.06731
Precursor type: [M+H]+
m/z	relative intensity
70.0298	103
74.0249	407
78.9964	11
86.0726	135
88.0403	999
98.0355	227
99.0088	45
111.9683	15
112.0514	364
113.0797	1
113.9651	89
114.9717	12
116.0361	1
121.011	1
124.9559	1
124.9574	1
130.0618	127
131.046	128
131.9752	1
134.0456	230
135.0496	1
140.0466	22
144.0807	1
145.0609	1
145.9556	1
155.978	1
158.0572	98
159.0582	1
160.9897	1
173.0788	1
176.0672	363
177.0699	1
178.072	1
190.0827	10
192.9535	1
194.1164	1
249.8863	1
302.1979	1
