Mass spectrum: D+-Raffinose; LC-ESI-QTOF; MS2; CE: 30.98;  [M+HCOOH-H]-
Name: D+-Raffinose
Class: NA
Formula: C18H32O16
Exact mass: 504.1690
SMILES: C(C1C(C(C(C(O1)OCC2C(C(C(C(O2)OC3(C(C(C(O3)CO)O)O)CO)O)O)O)O)O)O)O
InChI: InChI=1S/C18H32O16/c19-1-5-8(22)11(25)13(27)16(31-5)30-3-7-9(23)12(26)14(28)17(32-7)34-18(4-21)15(29)10(24)6(2-20)33-18/h5-17,19-29H,1-4H2
Instrument: Bruker MicrOTOF-Q
Instrument type: LC-ESI-QTOF
Ms type: MS2
Ion mode: NEGATIVE
Ionization: ESI
Collision energy: 30.98
Column name: Acquity CSHC18
Retention time: NA
Base peak: 549.1672
Precursor m/z: 549.1672
Precursor type: [M+HCOOH-H]-
m/z	relative intensity
59.0697	14
89.0287	17
95.011	16
97.0292	19
99.0073	17
101.0242	165
110.9204	23
113.0247	645
114.0288	67
115.0353	26
119.0346	86
121.027	18
125.0244	200
129.0201	61
130.9913	108
132.0313	17
133.0429	20
139.0476	26
140.8838	58
142.0223	45
142.9987	384
144.0387	55
149.0454	72
159.0312	25
161.0463	440
162.0527	50
178.995	507
180.0609	87
203.0519	45
221.0837	999
222.9902	213
224.0744	29
233.0654	43
245.064	115
263.076	210
264.0776	34
281.0921	36
305.0847	18
323.0976	271
324.1073	35
341.1053	104
503.1581	43
