Mass spectrum: MANNOSE; LC-ESI-QTOF; MS2; CE: 20;  [M-H]-
Name: MANNOSE
Class: NA
Formula: C6H12O6
Exact mass: 180.06339
SMILES: OC[C@H]1OC(O)[C@@H](O)[C@@H](O)[C@@H]1O
InChI: InChI=1S/C6H12O6/c7-1-2-3(8)4(9)5(10)6(11)12-2/h2-11H,1H2/t2-,3-,4+,5+,6?/m1/s1
Instrument: Agilent 6530Â Q-TOF LC/MS
Instrument type: LC-ESI-QTOF
Ms type: MS2
Ion mode: NEGATIVE
Ionization: ESI
Collision energy: 20
Column name: NA
Retention time: 0.200 min
Base peak: 179.05859
Precursor m/z: 179.05859
Precursor type: [M-H]-
Precursor intensity: 116
m/z	relative intensity
43.022	221
59.0342	345
71.0214	999
