Mass spectrum: malvidin; LC-ESI-ITFT; MS2; CE: 0.3;  [M]+
Name: malvidin
Class: anthocyanidins
Formula: [C17H15O7]+
Exact mass: 331.0812
SMILES: COC1=CC(=CC(=C1O)OC)C2=[O+]C3=CC(=CC(=C3C=C2O)O)O
InChI: InChI=1S/C17H14O7/c1-22-14-3-8(4-15(23-2)16(14)21)17-12(20)7-10-11(19)5-9(18)6-13(10)24-17/h3-7H,1-2H3,(H3-,18,19,20,21)/p+1
Instrument: LTQ-Orbitrap XL hybrid mass spectrometer (Thermo Scientific)
Instrument type: LC-ESI-ITFT
Ms type: MS2
Ion mode: POSITIVE
Ionization: ESI
Collision energy: 0.3
Column name: Acquity CSHC18
Retention time: 6.849 min
Base peak: 331.0826
Precursor m/z: 331.0826
Precursor type: [M]+
Precursor intensity: 44431470
m/z	relative intensity
84.8269	8
90.9042	7
97.921	8
103.1568	8
103.1583	7
130.9965	6
149.0238	34
150.0319	12
161.1661	6
161.1689	7
161.1814	10
167.6631	9
178.0269	17
179.0346	82
191.0347	12
194.5352	5
196.1353	8
196.1397	23
196.2192	7
201.0553	10
215.0714	36
225.0556	15
229.0508	23
242.0587	85
243.0665	105
253.0509	33
257.046	9
269.046	31
270.0538	334
271.0616	255
275.0929	83
286.0487	17
286.5151	7
286.5239	8
286.5444	10
287.0566	370
288.0647	29
298.0489	202
299.0566	999
300.0595	17
300.0659	8
303.088	57
315.0516	538
316.0595	452
317.0626	17
323.7455	6
327.0592	5
331.0829	74
