Mass spectrum: 16:0-18:1 DG; ESI-TOF; MS2; CE: 6.0000000;  [M+H]+
Name: 16:0-18:1 DG
Class: NA
Formula: C37H70O5
Exact mass: 594.52233
SMILES: [H]OC([H])([H])C([H])(OC(=O)C([H])([H])C([H])([H])C([H])([H])C([H])([H])C([H])([H])C([H])([H])C([H])([H])C([H])=C([H])C([H])([H])C([H])([H])C([H])([H])C([H])([H])C([H])([H])C([H])([H])C([H])([H])C([H])([H])[H])C([H])([H])OC(=O)C([H])([H])C([H])([H])C([H])([H])C([H])([H])C([H])([H])C([H])([H])C([H])([H])C([H])([H])C([H])([H])C([H])([H])C([H])([H])C([H])([H])C([H])([H])C([H])([H])C([H])([H])[H]
InChI: InChI=1S/C37H70O5/c1-3-5-7-9-11-13-15-17-18-20-22-24-26-28-30-32-37(40)42-35(33-38)34-41-36(39)31-29-27-25-23-21-19-16-14-12-10-8-6-4-2/h17-18,35,38H,3-16,19-34H2,1-2H3
Instrument: waters xevo g2 TOF
Instrument type: ESI-TOF
Ms type: MS2
Ion mode: POSITIVE
Ionization: ESI
Collision energy: 6.0000000
Column name: Acquity CSHC18
Retention time: 12.209 min
Base peak: 595.53033
Precursor m/z: 595.53033
Precursor type: [M+H]+
m/z	relative intensity
127.9597	16
145.955	15
230.8908	19
304.236	13
313.2742	398
314.2777	83
317.2454	236
317.7445	109
318.2451	27
331.2528	23
337.2738	23
339.2892	215
340.293	51
537.3958	18
577.5193	999
578.5229	418
579.5268	95
580.5239	10
591.4955	39
595.5275	142
596.5287	59
