Mass spectrum: 3-Hydroxybutyric acid; LC-ESI-ITFT; MS2; CE: 20;  [M-H]-
Name: 3-Hydroxybutyric acid
Class: Organic acids and derivatives; Hydroxy acids and derivatives; Beta hydroxy acids and derivatives
Formula: C4H8O3
Exact mass: 104.04734
SMILES: CC(O)CC(O)=O
InChI: InChI=1S/C4H8O3/c1-3(5)2-4(6)7/h3,5H,2H2,1H3,(H,6,7)
Instrument: Thermo Scientific Q-Exactive Focus
Instrument type: LC-ESI-ITFT
Ms type: MS2
Ion mode: NEGATIVE
Ionization: ESI
Collision energy: 20
Column name: Acquity CSHC18
Retention time: NA
Base peak: 103.04007
Precursor m/z: 103.04007
Precursor type: [M-H]-
m/z	relative intensity
57.0334	95
57.1496	10
58.1132	10
58.7231	14
59.0126	999
61.1134	11
78.9692	11
92.5153	12
106.2015	10
124.3842	11
