Mass spectrum: Glucosyl p-coumarate; LC-ESI-QTOF; MS2; CE: 20-40eV;  [M+H-H2O]+
Name: Glucosyl p-coumarate
Class: Hydroxycinnamic acids and derivatives
Formula: C15H18O8
Exact mass: 326.1002
SMILES: C=1C=C(C=CC1C(=C(C(=O)OC2(C(C(C(C(CO)(O2)[H])(O)[H])(O)[H])(O)[H])[H])[H])[H])O
InChI: InChI=1S/C15H18O8/c16-7-10-12(19)13(20)14(21)15(22-10)23-11(18)6-3-8-1-4-9(17)5-2-8/h1-6,10,12-17,19-21H,7H2
Instrument: Impact II, Bruker; Dionex 3000, Thermo Scientific
Instrument type: LC-ESI-QTOF
Ms type: MS2
Ion mode: POSITIVE
Ionization: ESI
Collision energy: 20-40eV
Column name: Acquity CSHC18
Retention time: 5.291 min
Base peak: 309.0972
Precursor m/z: 309.0972
Precursor type: [M+H-H2O]+
Precursor intensity: 11697.25
m/z	relative intensity
95.0489	12
95.0846	131
97.1004	40
99.0431	11
99.0792	21
103.0274	8
105.069	43
107.0854	108
109.1009	31
111.0792	25
119.0488	288
119.0836	21
120.0514	15
121.1007	142
122.1046	26
127.0382	23
131.0745	11
135.1166	51
137.1325	31
147.0438	999
148.0478	101
149.1321	14
151.0815	9
165.0541	18
166.0559	13
177.1638	480
178.1664	42
195.1736	28
209.1179	17
209.1921	10
213.1871	10
249.1341	9
251.1314	9
277.0897	11
307.1185	8
