Mass spectrum: L-Tryptophan; LC-ESI-QTOF; MS2; CE: 15.00;  [M-H]-
Name: L-Tryptophan
Class: NA
Formula: C11H12N2O2
Exact mass: 204.0899
SMILES: C1=CC=C2C(=C1)C(=CN2)CC(C(=O)O)N
InChI: InChI=1S/C11H12N2O2/c12-9(11(14)15)5-7-6-13-10-4-2-1-3-8(7)10/h1-4,6,9,13H,5,12H2,(H,14,15)
Instrument: Bruker MicrOTOF-Q
Instrument type: LC-ESI-QTOF
Ms type: MS2
Ion mode: NEGATIVE
Ionization: ESI
Collision energy: 15.00
Column name: Acquity CSHC18
Retention time: NA
Base peak: 203.0826
Precursor m/z: 203.0826
Precursor type: [M-H]-
m/z	relative intensity
45.5622	52
47.2926	50
48.2828	110
49.491	47
49.9534	56
50.6761	55
51.6037	35
52.0285	69
53.4377	51
56.0235	65
56.5254	46
58.8156	35
59.6189	50
60.6174	74
62.0083	50
64.1943	65
66.8869	43
72.3997	58
75.6013	59
76.4389	52
79.5489	45
80.8022	45
81.9821	69
82.7148	34
84.0845	48
85.9659	66
86.6951	47
88.7678	66
90.7675	60
92.5376	59
93.2249	81
93.9578	52
94.7593	73
95.977	49
97.645	45
98.4908	52
99.3245	34
99.8733	63
100.674	62
102.0803	89
103.6443	48
104.4885	40
106.337	68
107.0588	63
108.5261	59
109.9271	66
110.9461	65
111.724	55
112.5036	47
112.9976	55
114.3031	40
116.0189	999
116.978	396
117.5969	32
119.4027	48
120.6561	37
125.7908	34
127.6142	52
128.0574	55
129.5908	58
130.0636	377
132.0879	37
133.1863	74
141.8715	951
143.0796	156
153.9871	74
156.578	32
158.0849	53
159.0944	188
162.0419	48
169.7418	43
173.222	52
180.6608	37
185.035	74
186.0452	48
187.056	55
195.7542	48
203.0818	211
204.0853	81
218.978	58
222.2361	35
232.3805	39
295.1253	36
357.0059	55
377.8504	50
408.0102	42
429.8446	42
451.2204	47
454.5678	37
499.987	32
507.6325	37
520.3246	45
527.2193	37
537.4015	32
666.0287	37
703.7315	52
732.6865	32
740.1666	40
769.8324	60
794.5078	42
862.9427	37
867.7142	40
908.5173	52
948.2373	34
971.242	32
