Mass spectrum: C18 Dihydroceramide (d18:0/18:0); ESI-TOF; MS2; CE: 6.0000000;  [M+H]+
Name: C18 Dihydroceramide (d18:0/18:0)
Class: NA
Formula: C36H73NO3
Exact mass: 567.55905
SMILES: [H]OC([H])([H])C([H])(N([H])C(=O)C([H])([H])C([H])([H])C([H])([H])C([H])([H])C([H])([H])C([H])([H])C([H])([H])C([H])([H])C([H])([H])C([H])([H])C([H])([H])C([H])([H])C([H])([H])C([H])([H])C([H])([H])C([H])([H])C([H])([H])[H])C([H])(O[H])C([H])([H])C([H])([H])C([H])([H])C([H])([H])C([H])([H])C([H])([H])C([H])([H])C([H])([H])C([H])([H])C([H])([H])C([H])([H])C([H])([H])C([H])([H])C([H])([H])C([H])([H])[H]
InChI: InChI=1S/C36H73NO3/c1-3-5-7-9-11-13-15-17-18-20-22-24-26-28-30-32-36(40)37-34(33-38)35(39)31-29-27-25-23-21-19-16-14-12-10-8-6-4-2/h34-35,38-39H,3-33H2,1-2H3,(H,37,40)
Instrument: waters xevo g2 TOF
Instrument type: ESI-TOF
Ms type: MS2
Ion mode: POSITIVE
Ionization: ESI
Collision energy: 6.0000000
Column name: Acquity CSHC18
Retention time: 11.398 min
Base peak: 568.56705
Precursor m/z: 568.56705
Precursor type: [M+H]+
m/z	relative intensity
125.9866	14
127.9596	14
303.761	121
304.2625	45
324.2753	8
537.3948	16
550.5561	8
568.5665	999
569.5701	415
