Mass spectrum: CMP; LC-ESI-QTOF; MS2; CE: 15 / 50;  [M+H]+
Name: CMP
Class: NA
Formula: C9H14N3O8P
Exact mass: 323.05185
SMILES: C1=CN(C(=O)N=C1N)C2C(C(C(O2)COP(=O)(O)O)O)O
InChI: InChI=1S/C9H14N3O8P/c10-5-1-2-12(9(15)11-5)8-7(14)6(13)4(20-8)3-19-21(16,17)18/h1-2,4,6-8,13-14H,3H2,(H2,10,11,15)(H2,16,17,18)
Instrument: impact II
Instrument type: LC-ESI-QTOF
Ms type: MS2
Ion mode: POSITIVE
Ionization: ESI
Collision energy: 15 / 50
Column name: Acquity CSHC18
Retention time: 0.586 min
Base peak: 324.05930
Precursor m/z: 324.05930
Precursor type: [M+H]+
m/z	relative intensity
59.0494	3
69.0344	6
69.0453	11
94.0398	20
95.0238	66
95.0424	1
96.0274	4
97.0285	47
98.0322	2
112.0505	999
112.0631	85
112.088	1
112.0979	3
112.1185	6
112.1271	7
112.1355	11
112.1511	4
112.1947	4
112.2348	1
112.243	1
112.3596	2
112.3842	1
113.0536	58
114.0545	2
208.0705	1
226.0818	1
309.2259	3
322.2864	2
323.1573	1
323.2685	2
324.0593	60
324.0808	2
324.1644	2
324.1879	2
324.2033	1
324.227	2
324.3623	4
325.062	7
325.1638	1
325.2175	1
325.3674	2
326.065	2
326.1374	1
326.2091	1
326.248	1
326.3781	8
