Mass spectrum: Malonyl-CoA; LC-ESI-ITFT; MS2; CE: 30;  [M+H]+
Name: Malonyl-CoA
Class: Lipids and lipid-like molecules; Fatty Acyls; Fatty acyl thioesters
Formula: C24H38N7O19P3S
Exact mass: 853.11560
SMILES: CC(C)(COP(O)(=O)OP(O)(=O)OC[C@H]1O[C@H]([C@H](O)[C@@H]1OP(O)(O)=O)N1C=NC2=C1N=CN=C2N)C(O)C(=O)NCCC(=O)NCCSC(=O)CC(O)=O
InChI: InChI=1S/C24H38N7O19P3S/c1-24(2,19(37)22(38)27-4-3-13(32)26-5-6-54-15(35)7-14(33)34)9-47-53(44,45)50-52(42,43)46-8-12-18(49-51(39,40)41)17(36)23(48-12)31-11-30-16-20(25)28-10-29-21(16)31/h10-12,17-19,23,36-37H,3-9H2,1-2H3,(H,26,32)(H,27,38)(H,33,34)(H,42,43)(H,44,45)(H2,25,28,29)(H2,39,40,41)/t12-,17-,18-,19?,23-/m1/s1
Instrument: Thermo Scientific Q-Exactive Focus
Instrument type: LC-ESI-ITFT
Ms type: MS2
Ion mode: POSITIVE
Ionization: ESI
Collision energy: 30
Column name: Acquity CSHC18
Retention time: 0.914 min
Base peak: 854.12286
Precursor m/z: 854.12286
Precursor type: [M+H]+
m/z	relative intensity
136.0616	23
245.0586	251
303.1367	203
347.1269	999
410.0254	42
427.0929	28
428.0362	456
445.1037	36
854.1217	141
854.1694	98
