Mass spectrum: nicotinate mononucleotide; LC-ESI-QTOF; MS2; CE: -10, -35, -60V;  [M-H]-
Name: nicotinate mononucleotide
Class: NA
Formula: C11H14NO9P
Exact mass: 335.0406
SMILES: C1=CC(=C[N+](=C1)C2C(C(C(O2)COP(=O)(O)O)O)O)C(=O)[O-]
InChI: InChI=1S/C11H14NO9P/c13-8-7(5-20-22(17,18)19)21-10(9(8)14)12-3-1-2-6(4-12)11(15)16/h1-4,7-10,13-14H,5H2,(H2-,15,16,17,18,19)
Instrument: TripleToF 5600; Sciex
Instrument type: LC-ESI-QTOF
Ms type: MS2
Ion mode: NEGATIVE
Ionization: ESI
Collision energy: -10, -35, -60V
Column name: Acquity CSHC18
Retention time: 5.972 min
Base peak: 334.0301
Precursor m/z: 334.0301
Precursor type: [M-H]-
Precursor intensity: 7317.25
m/z	relative intensity
78.9582	999
96.9692	282
192.9896	100
290.0435	396
