Mass spectrum: Trehalose; LC-ESI-ITFT; MS2; CE: 20;  [M-H]-
Name: Trehalose
Class: Organic oxygen compounds; Organooxygen compounds; Carbohydrates and carbohydrate conjugates
Formula: C12H22O11
Exact mass: 342.11621
SMILES: OC[C@H]1O[C@H](O[C@H]2O[C@H](CO)[C@@H](O)[C@H](O)[C@H]2O)[C@H](O)[C@@H](O)[C@@H]1O
InChI: InChI=1S/C12H22O11/c13-1-3-5(15)7(17)9(19)11(21-3)23-12-10(20)8(18)6(16)4(2-14)22-12/h3-20H,1-2H2/t3-,4-,5-,6-,7+,8+,9-,10-,11-,12-/m1/s1
Instrument: Thermo Scientific Q-Exactive Focus
Instrument type: LC-ESI-ITFT
Ms type: MS2
Ion mode: NEGATIVE
Ionization: ESI
Collision energy: 20
Column name: Acquity CSHC18
Retention time: 0.642 min
Base peak: 341.10892
Precursor m/z: 341.10892
Precursor type: [M-H]-
m/z	relative intensity
59.0127	435
71.0126	367
89.0232	999
101.0232	453
113.0232	267
119.0338	474
158.9775	94
161.0445	67
179.0552	190
341.1084	62
