Mass spectrum: URIDINE MONOPHOSPHATE; LC-ESI-QFT; MS2; CE: 30eV;  [M-H]-
Name: URIDINE MONOPHOSPHATE
Class: NA
Formula: C9H13N2O9P
Exact mass: 324.03587
SMILES: O[C@H]1[C@@H](O)[C@@H](O[C@@H]1COP(O)(O)=O)N1C=CC(=O)NC1=O
InChI: InChI=1S/C9H13N2O9P/c12-5-1-2-11(9(15)10-5)8-7(14)6(13)4(20-8)3-19-21(16,17)18/h1-2,4,6-8,13-14H,3H2,(H,10,12,15)(H2,16,17,18)/t4-,6-,7-,8-/m1/s1
Instrument: Q-Exactive Orbitrap, Thermo Scientfic; Ultimate 3000 HPLC, Thermo Scientfic
Instrument type: LC-ESI-QFT
Ms type: MS2
Ion mode: NEGATIVE
Ionization: ESI
Collision energy: 30eV
Column name: Acquity CSHC18
Retention time: 0.589 min
Base peak: 323.0286
Precursor m/z: 323.0286
Precursor type: [M-H]-
Precursor intensity: 125
m/z	relative intensity
50.5002	2
56.8327	2
59.4055	2
62.0301	2
62.7527	2
64.6672	2
65.2252	3
67.0239	2
74.704	3
78.9575	987
88.9314	19
91.9506	2
96.968	718
97.6638	3
103.9189	3
104.9265	31
106.9421	28
111.0184	135
116.9265	89
138.9787	95
142.9262	3
150.9788	88
157.2475	3
159.9196	4
160.9166	999
161.9177	16
164.034	15
168.9899	5
192.9897	54
196.8386	13
200.9092	22
211.0005	133
217.779	3
231.0162	6
232.902	48
234.0202	5
276.4985	3
280.0227	65
323.0286	155
324.0321	5
