Mass spectrum: Asparagine; LC-ESI-QTOF; MS2; CE: 10;  [M-H]-
Name: Asparagine
Class: NA
Formula: C4H8N2O3
Exact mass: 132.0535
SMILES: C(C(C(=O)O)N)C(=O)N
InChI: InChI=1S/C4H8N2O3/c5-2(4(8)9)1-3(6)7/h2H,1,5H2,(H2,6,7)(H,8,9)
Instrument: impact II
Instrument type: LC-ESI-QTOF
Ms type: MS2
Ion mode: NEGATIVE
Ionization: ESI
Collision energy: 10
Column name: Acquity CSHC18
Retention time: 1.863 min
Base peak: 131.0464
Precursor m/z: 131.0464
Precursor type: [M-H]-
m/z	relative intensity
72.0091	110
95.0252	219
113.0355	599
114.0197	999
131.0463	243
