Mass spectrum: D-Lysine; ESI-TOF; MS2; CE: 6.0000000;  [M+H]+
Name: D-Lysine
Class: NA
Formula: C6H14N2O2
Exact mass: 146.10553
SMILES: NCCCCC(N)C(O)=O
InChI: InChI=1S/C6H14N2O2/c7-4-2-1-3-5(8)6(9)10/h5H,1-4,7-8H2,(H,9,10)
Instrument: waters xevo g2 TOF
Instrument type: ESI-TOF
Ms type: MS2
Ion mode: POSITIVE
Ionization: ESI
Collision energy: 6.0000000
Column name: Acquity CSHC18
Retention time: 0.482 min
Base peak: 147.11353
Precursor m/z: 147.11353
Precursor type: [M+H]+
m/z	relative intensity
84.0818	31
85.0853	22
102.093	26
111.0922	11
112.048	39
113.0096	4
114.0194	375
119.9764	8
128.0721	5
129.1029	585
130.087	818
131.0902	51
142.0234	999
144.103	7
147.1136	295
148.0358	163
156.0353	118
169.0953	137
170.1179	57
186.0454	19
191.0775	37
201.0337	76
202.0139	14
215.1408	17
216.124	102
219.0446	6
225.1279	138
226.1268	8
233.1492	694
234.1533	82
242.0648	9
244.1678	5
247.0374	34
249.0388	9
251.0164	6
255.1313	39
258.1412	20
266.0434	7
275.2074	12
284.1291	18
295.0114	6
302.0518	35
303.1402	7
328.1167	6
329.1279	8
346.1311	96
347.0486	121
348.141	38
349.1372	47
370.1214	3
444.0951	6
463.2795	23
474.2265	9
485.2637	5
490.2407	23
492.2346	374
493.2376	102
499.2544	21
514.2156	78
515.2165	30
521.2314	20
530.1954	19
537.2034	20
547.1627	40
578.2737	13
638.3423	37
660.3093	7
676.2822	7
682.3024	27
683.3034	13
689.3185	17
