Mass spectrum: NAADP; LC-ESI-QTOF; MS2; CE: 15 / 50;  [M+H]+
Name: NAADP
Class: NA
Formula: C21H27N6O18P3
Exact mass: 744.05947
SMILES: C1=CC(=C[N+](=C1)C2C(C(C(O2)COP(=O)([O-])OP(=O)(O)OCC3C(C(C(O3)N4C=NC5=C(N=CN=C54)N)OP(=O)(O)O)O)O)O)C(=O)O
InChI: InChI=1S/C21H27N6O18P3/c22-17-12-18(24-7-23-17)27(8-25-12)20-16(44-46(33,34)35)14(29)11(43-20)6-41-48(38,39)45-47(36,37)40-5-10-13(28)15(30)19(42-10)26-3-1-2-9(4-26)21(31)32/h1-4,7-8,10-11,13-16,19-20,28-30H,5-6H2,(H6-,22,23,24,31,32,33,34,35,36,37,38,39)
Instrument: impact II
Instrument type: LC-ESI-QTOF
Ms type: MS2
Ion mode: POSITIVE
Ionization: ESI
Collision energy: 15 / 50
Column name: Acquity CSHC18
Retention time: 0.526 min
Base peak: 745.06660
Precursor m/z: 745.06660
Precursor type: [M+H]+
m/z	relative intensity
136.0616	999
232.083	115
410.0264	137
428.0371	185
508.0035	300
604.0254	107
622.036	192
745.0684	399
