Mass spectrum: ent-Prostaglandin F2-alpha; ESI-TOF; MS2; CE: 6.0000000;  [M+H]+
Name: ent-Prostaglandin F2-alpha
Class: NA
Formula: C20H34O5
Exact mass: 354.24062
SMILES: O[C@H]1[C@@H](C/C=C\CCCC(O)=O)[C@H](/C=C/[C@H](O)CCCCC)[C@@H](O)C1
InChI: InChI=1S/C20H34O5/c1-2-3-6-9-15(21)12-13-17-16(18(22)14-19(17)23)10-7-4-5-8-11-20(24)25/h4,7,12-13,15-19,21-23H,2-3,5-6,8-11,14H2,1H3,(H,24,25)/b7-4-,13-12+/t15-,16+,17+,18-,19+/m1/s1
Instrument: waters xevo g2 TOF
Instrument type: ESI-TOF
Ms type: MS2
Ion mode: POSITIVE
Ionization: ESI
Collision energy: 6.0000000
Column name: Acquity CSHC18
Retention time: 3.664 min
Base peak: 355.24862
Precursor m/z: 355.24862
Precursor type: [M+H]+
m/z	relative intensity
100.9583	1
105.0713	2
117.0718	3
119.0862	3
121.0293	3
123.1158	1
131.0864	5
137.1315	3
145.1029	3
161.1326	1
171.1184	4
174.1294	2
181.1128	4
185.0957	9
186.1	1
187.1121	17
188.1037	11
189.1642	4
191.1047	3
193.1209	3
195.1022	11
199.1123	6
203.1076	10
205.1584	10
207.1363	4
213.1463	3
215.179	4
217.1226	17
218.128	1
221.1515	4
223.17	6
230.1997	1
231.2102	2
237.168	2
239.1796	9
240.1838	1
241.1949	10
245.1736	5
247.2041	9
255.209	12
257.1906	92
259.2042	17
263.197	52
264.2056	8
265.2068	296
266.2181	46
267.2106	1
273.2202	13
275.2009	143
276.2022	18
283.2053	127
284.2094	30
285.2201	10
291.2341	32
293.2112	26
294.2141	3
299.2077	8
301.2162	999
302.2184	192
303.229	81
304.2346	14
309.2015	3
311.1772	2
317.2121	19
318.1677	7
319.2265	837
320.2309	23
321.2366	32
322.2436	3
333.238	4
335.2216	19
336.22	3
337.1734	104
338.2411	33
346.1273	1
347.1307	16
349.1845	2
353.229	5
356.2106	23
