Mass spectrum: D-SEDOHEPTULOSE; LC-ESI-QTOF; MS2; CE: 40;  [M-H]-
Name: D-SEDOHEPTULOSE
Class: NA
Formula: C7H14O7
Exact mass: 210.07395
SMILES: OC[C@H]1O[C@](O)(CO)[C@@H](O)[C@H](O)[C@@H]1O
InChI: InChI=1S/C7H14O7/c8-1-3-4(10)5(11)6(12)7(13,2-9)14-3/h3-6,8-13H,1-2H2/t3-,4-,5-,6+,7-/m1/s1
Instrument: Agilent 6530Â Q-TOF LC/MS
Instrument type: LC-ESI-QTOF
Ms type: MS2
Ion mode: NEGATIVE
Ionization: ESI
Collision energy: 40
Column name: NA
Retention time: 0.200 min
Base peak: 209.06980
Precursor m/z: 209.06980
Precursor type: [M-H]-
Precursor intensity: 188
m/z	relative intensity
41.0158	161
43.0287	161
44.9993	431
55.0238	470
59.0355	521
71.023	999
