Mass spectrum: S-CARBOXYMETHYLCYSTEINE; LC-ESI-QTOF; MS2; CE: 40;  [M+H]+
Name: S-CARBOXYMETHYLCYSTEINE
Class: NA
Formula: C5H9NO4S
Exact mass: 179.02523
SMILES: NC(CSCC(O)=O)C(O)=O
InChI: InChI=1S/C5H9NO4S/c6-3(5(9)10)1-11-2-4(7)8/h3H,1-2,6H2,(H,7,8)(H,9,10)
Instrument: Agilent 6530Â Q-TOF LC/MS
Instrument type: LC-ESI-QTOF
Ms type: MS2
Ion mode: POSITIVE
Ionization: ESI
Collision energy: 40
Column name: NA
Retention time: 0.200 min
Base peak: 180.03533
Precursor m/z: 180.03533
Precursor type: [M+H]+
Precursor intensity: 44.5
m/z	relative intensity
42.0268	128
42.0305	199
42.0342	197
42.0379	168
42.0417	129
42.0454	90
44.9709	157
44.9747	272
44.9786	324
44.9824	307
44.9863	268
44.9901	207
44.994	141
44.9978	109
45.0016	82
46.9837	93
46.9877	205
46.9916	226
46.9955	194
46.9995	157
47.0034	120
47.0073	89
58.9829	396
58.9873	836
58.9917	999
58.9961	883
59.0005	710
59.0049	546
59.0093	413
59.0137	327
59.0181	257
59.0225	198
59.0269	141
59.0313	112
59.0357	80
61.0026	180
61.007	219
61.0115	190
61.016	146
61.0205	117
61.0249	92
73.9972	116
74.0021	125
74.0071	108
74.012	82
