Mass spectrum: D-Threitol; ESI-TOF; MS2; CE: 0.6458333;  [M+H]+
Name: D-Threitol
Class: NA
Formula: C4H10O4
Exact mass: 122.05791
SMILES: OCC(O)C(O)CO
InChI: InChI=1S/C4H10O4/c5-1-3(7)4(8)2-6/h3-8H,1-2H2
Instrument: waters xevo g2 TOF
Instrument type: ESI-TOF
Ms type: MS2
Ion mode: POSITIVE
Ionization: ESI
Collision energy: 0.6458333
Column name: Acquity CSHC18
Retention time: 0.564 min
Base peak: 123.06591
Precursor m/z: 123.06591
Precursor type: [M+H]+
m/z	relative intensity
69.0349	2
72.0063	36
81.0106	112
86.9994	79
89.9784	543
91.0549	16
95.9666	60
96.9622	2
99.0215	522
99.9617	259
101.5237	2
102.072	42
102.9484	122
105.0558	2
109.9467	33
110.9876	180
112.9917	189
114.9924	732
115.9562	107
117.0131	152
118.0296	140
118.9632	16
122.0202	2
123.0658	2
123.9952	115
124.9572	69
128.0145	440
129.0189	187
130.0781	2
131.9842	151
132.9967	216
134.0415	2
140.0682	2
141.0207	2
142.0029	127
142.5417	2
143.0198	2
144.0371	2
145.0478	2
146.0092	556
146.9975	97
150.0259	2
150.5264	2
151.0266	2
151.9965	14
153.972	28
154.9701	32
155.9747	43
157.9847	137
158.9975	64
159.9462	2
161.0129	352
165.0342	99
168.9809	2
171.9825	2
173.0405	36
173.9632	2
175.9782	320
176.9851	999
177.9904	71
178.9865	181
179.954	2
182.9864	2
189.9931	2
193.0305	2
194.0543	2
194.9947	2
195.9977	2
197.4984	2
201.9854	2
203.0504	44
207.018	2
208.0037	76
217.0037	2
218.0112	2
220.0048	39
221.0607	2
221.9834	2
222.9907	2
230.0091	2
232.0034	2
233.0083	2
235.998	2
237.006	2
249.0077	2
250.0036	2
251.013	48
258.171	23
269.0822	97
270.0853	2
271.0853	2
283.0699	2
284.9153	37
285.9225	2
289.039	2
294.0424	2
296.0384	2
297.0483	2
298.0355	2
299.0423	110
300.0432	2
301.0432	2
301.9129	2
303.0403	2
304.0404	2
309.0369	2
320.9351	2
352.9608	2
405.9047	2
441.3379	2
473.0023	2
485.0038	2
570.9713	2
