Mass spectrum: Myristic acid; LC-ESI-QTOF; MS2; CE: 60;  [M-H]-
Name: Myristic acid
Class: NA
Formula: C14H28O2
Exact mass: 228.2089
SMILES: CCCCCCCCCCCCCC(=O)O
InChI: InChI=1S/C14H28O2/c1-2-3-4-5-6-7-8-9-10-11-12-13-14(15)16/h2-13H2,1H3,(H,15,16)
Instrument: impact II
Instrument type: LC-ESI-QTOF
Ms type: MS2
Ion mode: NEGATIVE
Ionization: ESI
Collision energy: 60
Column name: Acquity CSHC18
Retention time: 1.887 min
Base peak: 227.2020
Precursor m/z: 227.2020
Precursor type: [M-H]-
m/z	relative intensity
68.9994	333
79.9575	999
89.0034	543
