Mass spectrum: Creatinine; LC-ESI-ITFT; MS2; CE: 10;  [M+H]+
Name: Creatinine
Class: Organic acids and derivatives; Carboxylic acids and derivatives; Amino acids, peptides, and analogues
Formula: C4H7N3O
Exact mass: 113.05891
SMILES: CN1CC(=O)NC1=N
InChI: InChI=1S/C4H7N3O/c1-7-2-3(8)6-4(7)5/h2H2,1H3,(H2,5,6,8)
Instrument: Thermo Scientific Q-Exactive Focus
Instrument type: LC-ESI-ITFT
Ms type: MS2
Ion mode: POSITIVE
Ionization: ESI
Collision energy: 10
Column name: Acquity CSHC18
Retention time: 0.175 min
Base peak: 114.06619
Precursor m/z: 114.06619
Precursor type: [M+H]+
m/z	relative intensity
59.5217	4
71.0296	95
72.0449	9
80.0348	51
82.5375	16
86.0717	100
91.5428	6
104.0822	2
114.0665	999
114.0916	14
