Mass spectrum: Plumbagin; LC-ESI-QTOF; MS2; CE: 50eV;  [M+H]+
Name: Plumbagin
Class: Naphthoquinone
Formula: C11H8O3
Exact mass: 188.0473
SMILES: CC1=CC(=O)C2=C(C1=O)C=CC=C2O
InChI: InChI=1S/C11H8O3/c1-6-5-9(13)10-7(11(6)14)3-2-4-8(10)12/h2-5,12H,1H3
Instrument: TIMS-TOF Pro, Bruker Daltonik; Elute UHPLC System, Bruker Daltonik
Instrument type: LC-ESI-QTOF
Ms type: MS2
Ion mode: POSITIVE
Ionization: ESI
Collision energy: 50eV
Column name: Acquity CSHC18
Retention time: 8.768 min
Base peak: 189.0554
Precursor m/z: 189.0554
Precursor type: [M+H]+
Precursor intensity: 2871.88
m/z	relative intensity
32.7368	680
89.0334	415
89.0394	616
143.05	409
161.0589	999
189.0532	932
