Mass spectrum: trichocarpin; LC-ESI-ITFT; MS2; CE: 20/50eV;  [M-H]-
Name: trichocarpin
Class: Salicinoid
Formula: C20H22O9
Exact mass: 406.1264
SMILES: C1=CC=C(C=C1)COC(=O)C2=C(C=CC(=C2)O)OC3C(C(C(C(O3)CO)O)O)O
InChI: InChI=1S/C20H22O9/c21-9-15-16(23)17(24)18(25)20(29-15)28-14-7-6-12(22)8-13(14)19(26)27-10-11-4-2-1-3-5-11/h1-8,15-18,20-25H,9-10H2
Instrument: Bruker timsTOF
Instrument type: LC-ESI-ITFT
Ms type: MS2
Ion mode: NEGATIVE
Ionization: ESI
Collision energy: 20/50eV
Column name: Acquity CSHC18
Retention time: 6.249 min
Base peak: 405.1189
Precursor m/z: 405.1189
Precursor type: [M-H]-
Precursor intensity: 64812.56
m/z	relative intensity
79.0184	285
107.0136	259
108.0187	38
136.0161	59
151.0032	140
153.0192	47
163.041	37
177.0187	79
242.0583	999
243.0659	355
285.0761	62
297.062	145
405.1191	173
