Mass spectrum: Ureidosuccinic acid; LC-ESI-QTOF; MS2; CE: 15.00;  [M+Na]+
Name: Ureidosuccinic acid
Class: NA
Formula: C5H8N2O5
Exact mass: 176.0433
SMILES: C(C(C(=O)O)NC(=O)N)C(=O)O
InChI: InChI=1S/C5H8N2O5/c6-5(12)7-2(4(10)11)1-3(8)9/h2H,1H2,(H,8,9)(H,10,11)(H3,6,7,12)
Instrument: Bruker MicrOTOF-Q
Instrument type: LC-ESI-QTOF
Ms type: MS2
Ion mode: POSITIVE
Ionization: ESI
Collision energy: 15.00
Column name: Acquity CSHC18
Retention time: NA
Base peak: 199.0325
Precursor m/z: 199.0325
Precursor type: [M+Na]+
m/z	relative intensity
156.0256	999
157.0435	29
181.0226	59
199.0319	412
200.0464	64
