Mass spectrum: ERIODICTYOL; LC-ESI-QTOF; MS2; CE: -10, -35, -60V;  [M-H]-
Name: ERIODICTYOL
Class: NA
Formula: C15H12O6
Exact mass: 288.0634
SMILES: C1C(OC2=CC(=CC(=C2C1=O)O)O)C3=CC(=C(C=C3)O)O
InChI: InChI=1S/C15H12O6/c16-8-4-11(19)15-12(20)6-13(21-14(15)5-8)7-1-2-9(17)10(18)3-7/h1-5,13,16-19H,6H2
Instrument: TripleToF 5600; Sciex
Instrument type: LC-ESI-QTOF
Ms type: MS2
Ion mode: NEGATIVE
Ionization: ESI
Collision energy: -10, -35, -60V
Column name: Acquity CSHC18
Retention time: 13.229 min
Base peak: 287.0601
Precursor m/z: 287.0601
Precursor type: [M-H]-
Precursor intensity: 10180.25
m/z	relative intensity
65.0023	18
128.1057	131
135.0467	102
136.0163	18
147.0442	32
151.0024	140
152.0085	25
164.0013	99
164.0139	96
174.0276	33
175.0384	26
199.0404	127
210.1466	60
226.1479	498
227.1574	91
242.0593	17
257.0475	86
258.0488	35
285.0235	929
285.0426	999
286.0516	495
287.0552	251
