Mass spectrum: N-Oleoyldopamine; LC-ESI-ITFT; MS2; CE: 100;  [M+H]+
Name: N-Oleoyldopamine
Class: NA
Formula: C26H43NO3
Exact mass: 417.32429
SMILES: CCCCCCCC/C=C\CCCCCCCC(=O)NCCC1=CC(=C(C=C1)O)O
InChI: InChI=1S/C26H43NO3/c1-2-3-4-5-6-7-8-9-10-11-12-13-14-15-16-17-26(30)27-21-20-23-18-19-24(28)25(29)22-23/h9-10,18-19,22,28-29H,2-8,11-17,20-21H2,1H3,(H,27,30)/b10-9-
Instrument: Thermo Scientific Q-Exactive Focus
Instrument type: LC-ESI-ITFT
Ms type: MS2
Ion mode: POSITIVE
Ionization: ESI
Collision energy: 100
Column name: Acquity CSHC18
Retention time: 2.571 min
Base peak: 418.33157
Precursor m/z: 418.33157
Precursor type: [M+H]+
m/z	relative intensity
53.0027	14
53.0391	19
55.0548	90
65.0391	549
67.0547	39
79.0546	36
81.0702	18
91.0546	999
95.0494	17
119.0492	36
