Mass spectrum: 3-NITRO-L-TYROSINE; LC-ESI-QTOF; MS2; CE: 10;  [M-H]-
Name: 3-NITRO-L-TYROSINE
Class: NA
Formula: C9H10N2O5
Exact mass: 226.05897
SMILES: C1=CC(=C(C=C1CC(C(=O)O)N)[N+](=O)[O-])O
InChI: InChI=1S/C9H10N2O5/c10-6(9(13)14)3-5-1-2-8(12)7(4-5)11(15)16/h1-2,4,6,12H,3,10H2,(H,13,14)
Instrument: Agilent 6530Â Q-TOF LC/MS
Instrument type: LC-ESI-QTOF
Ms type: MS2
Ion mode: NEGATIVE
Ionization: ESI
Collision energy: 10
Column name: NA
Retention time: 0.200 min
Base peak: 225.04882
Precursor m/z: 225.04882
Precursor type: [M-H]-
Precursor intensity: 194
m/z	relative intensity
45.9949	112
118.04	113
133.0559	141
134.0433	149
135.051	196
136.0525	201
138.016	246
148.0516	274
151.0284	410
163.0743	423
164.046	452
181.0728	478
225.066	999
