Mass spectrum: Xanthine; LC-ESI-ITFT; MS2; CE: 100;  [M-H]-
Name: Xanthine
Class: Organoheterocyclic compounds; Imidazopyrimidines; Purines and purine derivatives
Formula: C5H4N4O2
Exact mass: 152.03343
SMILES: O=C1NC2=C(NC=N2)C(=O)N1
InChI: InChI=1S/C5H4N4O2/c10-4-2-3(7-1-6-2)8-5(11)9-4/h1H,(H3,6,7,8,9,10,11)
Instrument: Thermo Scientific Q-Exactive Focus
Instrument type: LC-ESI-ITFT
Ms type: MS2
Ion mode: NEGATIVE
Ionization: ESI
Collision energy: 100
Column name: Acquity CSHC18
Retention time: 2.318 min
Base peak: 151.02615
Precursor m/z: 151.02615
Precursor type: [M-H]-
m/z	relative intensity
80.391	837
82.8334	840
84.3495	864
88.508	837
110.0094	853
150.1345	999
158.969	839
159.596	814
165.3333	838
165.8648	919
