Mass spectrum: Nicotinic acid; LC-ESI-QTOF; MS2; CE: 35.00;  [M+H]+
Name: Nicotinic acid
Class: NA
Formula: C6H5NO2
Exact mass: 123.0320
SMILES: C1=CC(=CN=C1)C(=O)O
InChI: InChI=1S/C6H5NO2/c8-6(9)5-2-1-3-7-4-5/h1-4H,(H,8,9)
Instrument: Bruker MicrOTOF-Q
Instrument type: LC-ESI-QTOF
Ms type: MS2
Ion mode: POSITIVE
Ionization: ESI
Collision energy: 35.00
Column name: Acquity CSHC18
Retention time: NA
Base peak: 124.0404
Precursor m/z: 124.0404
Precursor type: [M+H]+
m/z	relative intensity
124.037	999
