Mass spectrum: N-Acetyl-L-tyrosine; ESI-TOF; MS2; CE: 0.6458333;  [M+H]+
Name: N-Acetyl-L-tyrosine
Class: NA
Formula: C11H13NO4
Exact mass: 223.08446
SMILES: CC(=O)NC(CC1=CC=C(O)C=C1)C(O)=O
InChI: InChI=1S/C11H13NO4/c1-7(13)12-10(11(15)16)6-8-2-4-9(14)5-3-8/h2-5,10,14H,6H2,1H3,(H,12,13)(H,15,16)
Instrument: waters xevo g2 TOF
Instrument type: ESI-TOF
Ms type: MS2
Ion mode: POSITIVE
Ionization: ESI
Collision energy: 0.6458333
Column name: Acquity CSHC18
Retention time: 1.850 min
Base peak: 224.09246
Precursor m/z: 224.09246
Precursor type: [M+H]+
m/z	relative intensity
77.0394	43
91.0549	999
92.0583	80
95.0496	184
103.055	11
107.0496	92
109.0653	33
114.9711	11
118.0656	49
119.0497	693
120.0546	97
123.0443	431
124.0422	35
136.0763	491
137.0795	189
138.0825	8
147.0446	141
165.055	237
175.9921	26
178.0869	98
179.0899	8
182.0817	83
183.0852	6
194.9954	4
205.0193	61
206.0538	21
218.0496	133
224.0925	41
230.0996	12
233.0144	244
234.0202	157
235.0275	43
238.0176	20
246.0742	284
247.0777	34
251.024	23
262.0443	43
279.02	58
349.1831	7
410.0944	30
411.0991	10
443.1087	4
447.1767	4
469.1559	47
471.1377	24
485.123	88
486.1273	21
500.0885	28
501.0935	21
502.0937	2
503.0955	5
778.101	6
