Mass spectrum: Guanine; LC-ESI-ITFT; MS2; CE: 30;  [M-H]-
Name: Guanine
Class: Organoheterocyclic compounds; Imidazopyrimidines; Purines and purine derivatives
Formula: C5H5N5O
Exact mass: 151.04941
SMILES: NC1=NC(=O)C2=C(N1)N=CN2
InChI: InChI=1S/C5H5N5O/c6-5-9-3-2(4(11)10-5)7-1-8-3/h1H,(H4,6,7,8,9,10,11)
Instrument: Thermo Scientific Q-Exactive Focus
Instrument type: LC-ESI-ITFT
Ms type: MS2
Ion mode: NEGATIVE
Ionization: ESI
Collision energy: 30
Column name: Acquity CSHC18
Retention time: 0.930 min
Base peak: 150.04213
Precursor m/z: 150.04213
Precursor type: [M-H]-
m/z	relative intensity
65.9973	125
66.0085	999
72.1341	17
78.0085	17
90.0084	16
93.9595	109
123.9477	15
126.0297	25
133.0145	82
164.1828	15
