Mass spectrum: L-Aspartyl-L-phenylalanine; ESI-TOF; MS2; CE: 0.6458333;  [M+H]+
Name: L-Aspartyl-L-phenylalanine
Class: NA
Formula: C13H16N2O5
Exact mass: 280.10592
SMILES: NC(CC(O)=O)C(=O)NC(CC1=CC=CC=C1)C(O)=O
InChI: InChI=1S/C13H16N2O5/c14-9(7-11(16)17)12(18)15-10(13(19)20)6-8-4-2-1-3-5-8/h1-5,9-10H,6-7,14H2,(H,15,18)(H,16,17)(H,19,20)
Instrument: waters xevo g2 TOF
Instrument type: ESI-TOF
Ms type: MS2
Ion mode: POSITIVE
Ionization: ESI
Collision energy: 0.6458333
Column name: Acquity CSHC18
Retention time: 1.976 min
Base peak: 281.11392
Precursor m/z: 281.11392
Precursor type: [M+H]+
m/z	relative intensity
91.055	999
102.0925	67
103.0544	87
130.009	4
130.0654	654
144.0247	4
149.0036	4
157.0758	195
158.0609	127
166.0871	56
173.9817	4
175.0868	556
182.1902	4
203.0819	307
221.0929	4
245.0925	101
245.0929	4
263.1032	4
285.0838	43
295.1286	4
301.0494	255
309.1443	4
317.0235	85
342.0761	4
348.042	4
358.0489	4
360.0462	4
389.0673	4
