Mass spectrum: 1,2-dieicosenoyl-sn-glycero-3-phosphocholine; ESI-TOF; MS2; CE: 0.6458333;  [M+H]+
Name: 1,2-dieicosenoyl-sn-glycero-3-phosphocholine
Class: NA
Formula: C48H92NO8P
Exact mass: 841.65606
SMILES: [H]C(=C([H])C([H])([H])C([H])([H])C([H])([H])C([H])([H])C([H])([H])C([H])([H])C([H])([H])C([H])([H])C([H])([H])C(=O)OC([H])([H])C([H])(OC(=O)C([H])([H])C([H])([H])C([H])([H])C([H])([H])C([H])([H])C([H])([H])C([H])([H])C([H])([H])C([H])([H])C([H])=C([H])C([H])([H])C([H])([H])C([H])([H])C([H])([H])C([H])([H])C([H])([H])C([H])([H])C([H])([H])[H])C([H])([H])OP(=O)([O-])OC([H])([H])C([H])([H])[N+](C([H])([H])[H])(C([H])([H])[H])C([H])([H])[H])C([H])([H])C([H])([H])C([H])([H])C([H])([H])C([H])([H])C([H])([H])C([H])([H])C([H])([H])[H]
InChI: InChI=1S/C48H92NO8P/c1-6-8-10-12-14-16-18-20-22-24-26-28-30-32-34-36-38-40-47(50)54-44-46(45-56-58(52,53)55-43-42-49(3,4)5)57-48(51)41-39-37-35-33-31-29-27-25-23-21-19-17-15-13-11-9-7-2/h20-23,46H,6-19,24-45H2,1-5H3
Instrument: waters xevo g2 TOF
Instrument type: ESI-TOF
Ms type: MS2
Ion mode: POSITIVE
Ionization: ESI
Collision energy: 0.6458333
Column name: Acquity CSHC18
Retention time: 12.063 min
Base peak: 842.66406
Precursor m/z: 842.66406
Precursor type: [M+H]+
m/z	relative intensity
86.0974	9
163.016	3
184.0744	923
185.0774	54
186.0793	8
214.9182	3
293.2835	1
349.2419	95
350.2457	15
351.2445	1
365.2145	4
473.3015	5
479.1955	1
532.3763	120
533.3793	25
534.3822	5
550.3861	3
659.5964	26
660.6008	11
661.6018	1
681.5767	3
682.5859	2
706.4947	4
706.9955	5
805.5704	9
806.5746	4
807.5766	1
816.6481	3
817.6527	1
838.6263	2
842.6617	999
843.6654	546
