Mass spectrum: D-erythro-sphingosine; ESI-TOF; MS2; CE: 6.0000000;  [M+H]+
Name: D-erythro-sphingosine
Class: NA
Formula: C18H37NO2
Exact mass: 299.28243
SMILES: OC[C@H](N)[C@H](O)/C=C/CCCCCCCCCCCCC
InChI: InChI=1S/C18H37NO2/c1-2-3-4-5-6-7-8-9-10-11-12-13-14-15-18(21)17(19)16-20/h14-15,17-18,20-21H,2-13,16,19H2,1H3/b15-14+/t17-,18+/m0/s1
Instrument: waters xevo g2 TOF
Instrument type: ESI-TOF
Ms type: MS2
Ion mode: POSITIVE
Ionization: ESI
Collision energy: 6.0000000
Column name: Acquity CSHC18
Retention time: 4.122 min
Base peak: 300.29043
Precursor m/z: 300.29043
Precursor type: [M+H]+
m/z	relative intensity
81.0708	2
95.0861	6
97.102	3
109.1015	6
111.1173	3
119.0497	1
121.1013	3
123.1167	4
135.1174	4
137.1322	3
149.133	1
193.1966	2
211.2067	22
212.2249	3
221.2259	1
247.2425	11
252.2693	130
253.2727	26
254.2778	2
264.2692	41
265.2637	33
266.2656	5
282.4378	857
283.2831	999
284.2861	121
285.2906	9
300.2902	656
301.2911	141
