Mass spectrum: 1-oleoyl-2-hydroxy-sn-glycero-3-phosphocholine; ESI-TOF; MS2; CE: 6.0000000;  [M+H]+
Name: 1-oleoyl-2-hydroxy-sn-glycero-3-phosphocholine
Class: NA
Formula: C26H52NO7P
Exact mass: 521.34814
SMILES: O[C@@H](COP(OCC[N+](C)(C)C)([O-])=O)COC(CCCCCCC/C=C\CCCCCCCC)=O
InChI: InChI=1S/C26H52NO7P/c1-5-6-7-8-9-10-11-12-13-14-15-16-17-18-19-20-26(29)32-23-25(28)24-34-35(30,31)33-22-21-27(2,3)4/h12-13,25,28H,5-11,14-24H2,1-4H3/b13-12-/t25-/m1/s1
Instrument: waters xevo g2 TOF
Instrument type: ESI-TOF
Ms type: MS2
Ion mode: POSITIVE
Ionization: ESI
Collision energy: 6.0000000
Column name: Acquity CSHC18
Retention time: 6.575 min
Base peak: 522.35614
Precursor m/z: 522.35614
Precursor type: [M+H]+
m/z	relative intensity
104.1075	6
148.533	28
149.0338	2
157.5384	6
184.074	16
240.0997	26
243.6374	1
271.651	11
272.153	3
272.6634	1
279.6356	8
280.138	1
280.6564	167
281.1571	35
281.6582	7
282.652	2
288.6397	3
296.0568	1
312.0284	2
312.642	1
314.0284	1
321.2106	14
322.2137	2
322.6314	2
330.6156	1
337.1811	2
339.1841	1
346.1266	1
355.1796	1
379.6704	1
457.2025	4
504.3446	26
505.3475	7
506.3508	2
522.4085	999
523.3596	705
