Mass spectrum: 17-Methyltestosterone; LC-ESI-QTOF; MS2; CE: 20;  [M+H]+
Name: 17-Methyltestosterone
Class: NA
Formula: C20H30O2
Exact mass: 302.2246
SMILES: CC12CCC(=O)C=C1CCC3C2CCC4(C3CCC4(C)O)C
InChI: InChI=1S/C20H30O2/c1-18-9-6-14(21)12-13(18)4-5-15-16(18)7-10-19(2)17(15)8-11-20(19,3)22/h12,15-17,22H,4-11H2,1-3H3
Instrument: Agilent 6560Â Ion Mobility Q-TOF LC/MS
Instrument type: LC-ESI-QTOF
Ms type: MS2
Ion mode: POSITIVE
Ionization: ESI
Collision energy: 20
Column name: Acquity CSHC18
Retention time: 0.200 min
Base peak: 303.2347
Precursor m/z: 303.2347
Precursor type: [M+H]+
Precursor intensity: 160.5
m/z	relative intensity
84.9587	515
84.9619	531
84.9651	306
84.9683	88
97.059	120
97.0624	572
97.0658	515
97.0693	886
97.0727	467
97.0761	136
97.2612	112
107.0787	104
107.0823	225
107.0859	128
109.0589	128
109.0625	620
109.0661	410
109.0698	265
109.0734	153
123.1119	507
123.1157	330
123.1196	298
123.1234	112
135.2978	177
135.3019	153
159.1153	201
159.1197	96
159.124	96
175.1445	112
175.1491	459
175.1537	265
178.8905	120
178.8952	741
178.8998	588
178.9044	394
178.9091	249
178.9137	193
181.0121	217
181.0215	185
189.155	104
189.1598	982
189.1645	781
189.1693	515
189.1741	281
189.1789	281
189.1837	104
285.2121	418
285.218	999
285.2238	668
285.2297	378
285.2356	241
285.2415	209
285.2473	120
