Mass spectrum: Di-coumaroyl spermidine; LC-ESI-ITFT; MS2; CE: 35eV;  [M-2H]-
Name: Di-coumaroyl spermidine
Class: Phenolamide
Formula: [C25H32N3O4]+
Exact mass: 438.2387
SMILES: C1=CC(=CC=C1C=CC(=O)NCCCC[NH2+]CCCNC(=O)C=CC2=CC=C(C=C2)O)O
InChI: InChI=1S/C25H31N3O4/c29-22-10-4-20(5-11-22)8-14-24(31)27-18-2-1-16-26-17-3-19-28-25(32)15-9-21-6-12-23(30)13-7-21/h4-15,26,29-30H,1-3,16-19H2,(H,27,31)(H,28,32)/p+1
Instrument: LTQ Orbitrap XL, Thermo Scientfic; Dionex Ultimate 300
Instrument type: LC-ESI-ITFT
Ms type: MS2
Ion mode: NEGATIVE
Ionization: ESI
Collision energy: 35eV
Column name: Lichrospher C18 Column 250*4 5um, Interchim
Retention time: 46.276 min
Base peak: 436.2239
Precursor m/z: 436.2239
Precursor type: [M-2H]-
m/z	relative intensity
436.3144	999
