Mass spectrum: Brompheniramine; ESI-TOF; MS2; CE: 0.6458333;  [M+H]+
Name: Brompheniramine
Class: NA
Formula: C16H19BrN2
Exact mass: 318.07316
SMILES: CN(C)CCC(C1=CC=C(Br)C=C1)C1=CC=CC=N1
InChI: InChI=1S/C16H19BrN2/c1-19(2)12-10-15(16-5-3-4-11-18-16)13-6-8-14(17)9-7-13/h3-9,11,15H,10,12H2,1-2H3
Instrument: waters xevo g2 TOF
Instrument type: ESI-TOF
Ms type: MS2
Ion mode: POSITIVE
Ionization: ESI
Collision energy: 0.6458333
Column name: Acquity CSHC18
Retention time: 2.203 min
Base peak: 319.08116
Precursor m/z: 319.08116
Precursor type: [M+H]+
m/z	relative intensity
69.0352	1
90.0467	3
91.0552	46
92.0509	19
93.0465	6
94.066	3
101.0266	9
106.066	2
110.0606	3
112.0482	4
116.0617	5
117.0116	29
118.0661	288
119.0728	72
120.0795	5
125.0161	8
127.0128	2
137.0599	2
144.0943	7
155.9581	1
160.045	3
161.0439	3
166.0659	18
167.4587	570
169.0247	94
169.969	10
170.9633	123
171.9664	9
181.025	3
182.0905	4
193.0891	48
194.0969	553
195.1034	350
197.1108	2
201.0351	17
202.0426	27
203.0427	5
204.0466	8
205.0459	1
230.0738	11
231.0715	31
232.0712	130
233.0738	20
242.0544	2
244.984	12
245.9915	416
246.9995	400
247.9983	32
248.9959	160
250.0007	18
252.0254	1
254.0239	1
255.0008	1
257.9912	5
259.0748	2
259.9962	6
260.9959	4
267.0272	2
269.0026	1
272.0833	12
274.6343	955
276.6176	999
278.0882	70
279.0312	6
280.0349	2
282.0334	2
299.0196	6
301.0159	6
312.0601	4
314.0584	4
319.0544	3
320.0844	14
