Mass spectrum: (3S,5S,8R,9S,10S,13S,14S,16S,17R)-10,13-dimethyl-17-((S)-1-((2S,5S)-5-methylpiperidin-2-yl)ethyl)hexadecahydro-1H-cyclopenta[a]phenanthrene-3,16-diol; APCI-ITFT; MS2; CE: CID 35;  [M-H]-
Name: (3S,5S,8R,9S,10S,13S,14S,16S,17R)-10,13-dimethyl-17-((S)-1-((2S,5S)-5-methylpiperidin-2-yl)ethyl)hexadecahydro-1H-cyclopenta[a]phenanthrene-3,16-diol
Class: NA
Formula: C27H47NO2
Exact mass: 417.36068
SMILES: C[C@H](CN1)CC[C@H]1[C@@H](C)[C@@]2([H])[C@@H](O)C[C@@]3([H])[C@]4([H])CC[C@@]5([H])C[C@@H](O)CC[C@]5(C)[C@@]4([H])CC[C@]23C
InChI: InChI=1S/C27H47NO2/c1-16-5-8-23(28-15-16)17(2)25-24(30)14-22-20-7-6-18-13-19(29)9-11-26(18,3)21(20)10-12-27(22,25)4/h16-25,28-30H,5-15H2,1-4H3/t16-,17+,18-,19-,20+,21-,22-,23-,24-,25-,26-,27-/m0/s1
Instrument: Orbitrap Elite
Instrument type: APCI-ITFT
Ms type: MS2
Ion mode: NEGATIVE
Ionization: APCI
Collision energy: CID 35
Column name: Acquity CSHC18
Retention time: 0.132 min
Base peak: 416.35330
Precursor m/z: 416.35330
Precursor type: [M-H]-
Precursor intensity: 37686520
m/z	relative intensity
150.095	1
164.1079	6
166.1244	6
245.191	3
247.2103	1
255.179	1
271.1692	11
273.1858	11
289.2197	1
289.2513	13
290.2576	1
299.2037	1
299.2374	15
300.2425	1
301.2177	9
302.2239	1
315.2311	6
317.2471	18
319.2631	13
358.3136	1
370.3103	1
379.3054	1
380.2923	1
381.316	2
382.2732	1
384.327	105
385.3297	8
386.3397	112
387.3492	8
394.3086	11
396.3264	999
397.3336	173
398.301	470
398.4201	2
399.3028	106
400.3109	15
410.3068	1
412.3195	5
414.3394	1
415.3442	1
416.3526	87
