Mass spectrum: 3-METHYLADENINE; LC-ESI-QTOF; MS2; CE: 10;  [M+H]+
Name: 3-METHYLADENINE
Class: NA
Formula: C6H7N5
Exact mass: 149.07015
SMILES: CN1C=NC(N)=C2N=CN=C12
InChI: InChI=1S/C6H7N5/c1-11-3-10-5(7)4-6(11)9-2-8-4/h2-3H,7H2,1H3
Instrument: Agilent 6530Â Q-TOF LC/MS
Instrument type: LC-ESI-QTOF
Ms type: MS2
Ion mode: POSITIVE
Ionization: ESI
Collision energy: 10
Column name: NA
Retention time: 0.200 min
Base peak: 150.07788
Precursor m/z: 150.07788
Precursor type: [M+H]+
Precursor intensity: 86.5
m/z	relative intensity
123.068	191
133.0506	200
150.1187	999
