Mass spectrum: 16:0-18:1 DG; ESI-TOF; MS2; CE: 0.6458333;  [M+H]+
Name: 16:0-18:1 DG
Class: NA
Formula: C37H70O5
Exact mass: 594.52233
SMILES: [H]OC([H])([H])C([H])(OC(=O)C([H])([H])C([H])([H])C([H])([H])C([H])([H])C([H])([H])C([H])([H])C([H])([H])C([H])=C([H])C([H])([H])C([H])([H])C([H])([H])C([H])([H])C([H])([H])C([H])([H])C([H])([H])C([H])([H])[H])C([H])([H])OC(=O)C([H])([H])C([H])([H])C([H])([H])C([H])([H])C([H])([H])C([H])([H])C([H])([H])C([H])([H])C([H])([H])C([H])([H])C([H])([H])C([H])([H])C([H])([H])C([H])([H])C([H])([H])[H]
InChI: InChI=1S/C37H70O5/c1-3-5-7-9-11-13-15-17-18-20-22-24-26-28-30-32-37(40)42-35(33-38)34-41-36(39)31-29-27-25-23-21-19-16-14-12-10-8-6-4-2/h17-18,35,38H,3-16,19-34H2,1-2H3
Instrument: waters xevo g2 TOF
Instrument type: ESI-TOF
Ms type: MS2
Ion mode: POSITIVE
Ionization: ESI
Collision energy: 0.6458333
Column name: Acquity CSHC18
Retention time: 12.209 min
Base peak: 595.53033
Precursor m/z: 595.53033
Precursor type: [M+H]+
m/z	relative intensity
69.0711	33
71.0862	28
81.071	82
83.0864	76
85.1023	43
95.0861	125
97.1012	66
109.1017	100
111.1175	19
121.1013	54
123.1172	44
137.1331	19
149.1325	26
214.9187	26
239.2366	66
265.2532	86
295.1947	134
313.2742	264
314.2777	55
321.2101	178
322.2136	42
337.1833	160
339.2892	161
340.293	70
343.017	24
377.2362	20
385.2028	25
537.3958	33
577.5193	999
578.5229	408
579.5268	90
580.5239	9
591.4955	54
595.5275	16
596.5287	5
