Mass spectrum: Vitexin 4''-O-glucoside; LC-ESI-QTOF; MS2; CE: 20-40eV;  [M-H]-
Name: Vitexin 4''-O-glucoside
Class: Flavonoid C- glycosides
Formula: C27H30O15
Exact mass: 594.1585
SMILES: C=1C=C(C=CC1C2=CC(C=3C(=CC(=C(C3O2)C4(C(C(C(C(CO)(O4)[H])(O)[H])(O)[H])(O)[H])[H])O)O)=O)OC5(C(C(C(C(CO)(O5)[H])(O)[H])(O)[H])(O)[H])[H]
InChI: InChI=1S/C27H30O15/c28-7-15-19(33)21(35)23(37)26(41-15)18-12(31)5-11(30)17-13(32)6-14(40-25(17)18)9-1-3-10(4-2-9)39-27-24(38)22(36)20(34)16(8-29)42-27/h1-6,15-16,19-24,26-31,33-38H,7-8H2
Instrument: Impact II, Bruker; Dionex 3000, Thermo Scientific
Instrument type: LC-ESI-QTOF
Ms type: MS2
Ion mode: POSITIVE
Ionization: ESI
Collision energy: 20-40eV
Column name: Acquity CSHC18
Retention time: 4.435 min
Base peak: 593.1525
Precursor m/z: 593.1525
Precursor type: [M-H]-
Precursor intensity: 952665.6
m/z	relative intensity
292.8846	12
293.1074	13
293.2348	13
293.4291	15
293.8249	16
412.9305	16
413.2698	16
413.4098	18
413.6725	18
473.0943	23
592.6788	67
593.3564	999
593.6148	12
