Mass spectrum: Putative_Margaritene; LC-ESI-QTOF; MS2; CE: 20-40eV;  [M+H]+
Name: Putative_Margaritene
Class: Flavonoid C- glycosides
Formula: C28H32O14
Exact mass: 592.1792
SMILES: CC1(C(C(C(C(O1)(OC2(C(C(C(CO)(OC2(C3=C(C=C(C=4C(C=C(C5=CC=C(C=C5)OC)OC43)=O)O)O)[H])[H])(O)[H])(O)[H])[H])[H])(O)[H])(O)[H])(O)[H])[H]
InChI: InChI=1S/C28H32O14/c1-10-20(33)22(35)24(37)28(39-10)42-27-23(36)21(34)17(9-29)41-26(27)19-14(31)7-13(30)18-15(32)8-16(40-25(18)19)11-3-5-12(38-2)6-4-11/h3-8,10,17,20-24,26-31,33-37H,9H2,1-2H3
Instrument: Impact II, Bruker; Dionex 3000, Thermo Scientific
Instrument type: LC-ESI-QTOF
Ms type: MS2
Ion mode: POSITIVE
Ionization: ESI
Collision energy: 20-40eV
Column name: Acquity CSHC18
Retention time: 5.678 min
Base peak: 593.1867
Precursor m/z: 593.1867
Precursor type: [M+H]+
Precursor intensity: 17583.5
m/z	relative intensity
207.0507	27
311.1096	35
337.0906	55
433.1392	63
593.2101	999
