Mass spectrum: Quinic acid; LC-ESI-ITFT; MS2; CE: 100;  [M-H]-
Name: Quinic acid
Class: Organic oxygen compounds; Organooxygen compounds; Alcohols and polyols
Formula: C7H12O6
Exact mass: 192.06339
SMILES: OC1C[C@@](O)(C[C@@H](O)[C@H]1O)C(O)=O
InChI: InChI=1S/C7H12O6/c8-3-1-7(13,6(11)12)2-4(9)5(3)10/h3-5,8-10,13H,1-2H2,(H,11,12)/t3-,4?,5-,7+/m1/s1
Instrument: Thermo Scientific Q-Exactive Focus
Instrument type: LC-ESI-ITFT
Ms type: MS2
Ion mode: NEGATIVE
Ionization: ESI
Collision energy: 100
Column name: Acquity CSHC18
Retention time: 2.453 min
Base peak: 191.05611
Precursor m/z: 191.05611
Precursor type: [M-H]-
m/z	relative intensity
57.5035	776
70.4254	742
76.0632	763
78.0916	772
83.5571	737
88.4938	738
95.2483	824
96.0849	736
106.3622	782
150.0579	999
