Mass spectrum: 3-hydroxy-5-cholestenoic acid; ESI-TOF; MS2; CE: 0.6458333;  [M+H]+
Name: 3-hydroxy-5-cholestenoic acid
Class: NA
Formula: C27H44O3
Exact mass: 416.32905
SMILES: [H]OC(=O)C([H])(C([H])([H])[H])C([H])([H])C([H])([H])C([H])([H])C([H])(C([H])([H])[H])C2([H])(C([H])([H])C([H])([H])C3([H])(C4([H])(C([H])([H])C([H])=C1C([H])([H])C([H])(O[H])C([H])([H])C([H])([H])C1(C([H])([H])[H])C4([H])(C([H])([H])C([H])([H])C23(C([H])([H])[H])))))
InChI: InChI=1S/C27H44O3/c1-17(6-5-7-18(2)25(29)30)22-10-11-23-21-9-8-19-16-20(28)12-14-26(19,3)24(21)13-15-27(22,23)4/h8,17-18,20-24,28H,5-7,9-16H2,1-4H3,(H,29,30)
Instrument: waters xevo g2 TOF
Instrument type: ESI-TOF
Ms type: MS2
Ion mode: POSITIVE
Ionization: ESI
Collision energy: 0.6458333
Column name: Acquity CSHC18
Retention time: 8.358 min
Base peak: 417.33705
Precursor m/z: 417.33705
Precursor type: [M+H]+
m/z	relative intensity
81.0706	81
83.0863	17
91.0546	25
93.0706	32
95.0861	110
97.1019	49
105.0706	86
107.0859	164
109.1017	196
110.104	16
119.086	68
121.1019	100
123.1169	77
133.1013	163
135.117	355
136.1201	21
139.1117	16
145.1015	33
147.1173	110
149.1328	89
159.1173	46
161.1328	451
163.1486	95
175.1485	79
176.1526	26
185.1326	24
187.1491	60
189.1644	129
190.1661	14
199.1487	20
201.1641	35
203.1796	47
209.1536	18
213.1638	14
215.1798	107
216.1835	19
221.1531	15
223.1695	28
229.1949	48
235.1706	23
237.185	27
243.2112	52
249.1859	25
251.2011	16
257.227	60
263.2007	76
289.2168	85
317.2477	37
318.2514	16
343.261	13
381.3148	19
397.31	72
398.3146	28
399.3264	999
400.3296	303
401.3322	48
