Mass spectrum: Quercetin 5-methyl ether; LC-ESI-QTOF; MS2; CE: 50eV;  [M-H]-
Name: Quercetin 5-methyl ether
Class: Flavonol
Formula: C16H12O7
Exact mass: 316.0583
SMILES: COC1=CC(=CC2=C1C(=O)C(=C(O2)C3=CC(=C(C=C3)O)O)O)O
InChI: InChI=1S/C16H12O7/c1-22-11-5-8(17)6-12-13(11)14(20)15(21)16(23-12)7-2-3-9(18)10(19)4-7/h2-6,17-19,21H,1H3
Instrument: TIMS-TOF Pro, Bruker Daltonik; Elute UHPLC System, Bruker Daltonik
Instrument type: LC-ESI-QTOF
Ms type: MS2
Ion mode: NEGATIVE
Ionization: ESI
Collision energy: 50eV
Column name: Acquity CSHC18
Retention time: 5.786 min
Base peak: 315.0469
Precursor m/z: 315.0469
Precursor type: [M-H]-
Precursor intensity: 42156.33
m/z	relative intensity
26.9527	6
41.0025	4
63.0224	18
65.0016	126
65.1657	4
67.0192	9
68.9969	5
78.0077	5
89.0026	35
91.0175	55
93.0337	91
94.0035	35
97.0268	44
98.0295	6
99.0061	8
106.0035	5
107.0108	11
108.0211	8
109.0264	17
115.0592	5
117.1114	6
118.1991	7
120.4952	8
121.0271	266
121.5393	5
122.0318	16
128.2434	8
133.026	5
135.0065	14
137.02	10
140.0412	5
143.6599	6
146.0338	8
148.0125	27
149.0213	16
149.993	29
151.0008	10
154.6064	6
156.2143	6
160.0469	4
162.9986	13
165.0158	323
165.1374	3
166.0199	38
170.0484	7
171.0429	15
175.0376	5
183.0458	8
187.0373	8
189.8445	6
193.0099	158
194.0188	9
196.0402	5
199.0386	13
201.0166	7
213.129	5
226.0247	12
243.0233	29
244.0297	4
254.0166	6
256.031	7
257.0411	4
259.0573	8
271.0209	67
272.029	38
273.0546	6
287.0487	21
288.062	4
299.0076	7
300.0227	55
301.0258	15
314.8398	4
314.9321	3
315.0469	999
315.3352	3
315.436	7
315.5368	5
