Mass spectrum: 5alpha-Solanidan-3-on; APCI-ITFT; MS2; CE: 35 CID;  [M+H]+
Name: 5alpha-Solanidan-3-on
Class: NA
Formula: C27H43NO
Exact mass: 397.33446
SMILES: O=C1CC[C@@]2(C)[C@](CC[C@]3([H])[C@]2([H])CC[C@@]4(C)[C@@]3([H])C[C@@]5([H])[C@]4([H])[C@H](C)[C@]6([H])N5C[C@@H](C)CC6)([H])C1
InChI: InChI=1S/C27H43NO/c1-16-5-8-23-17(2)25-24(28(23)15-16)14-22-20-7-6-18-13-19(29)9-11-26(18,3)21(20)10-12-27(22,25)4/h16-18,20-25H,5-15H2,1-4H3/t16-,17+,18-,20+,21-,22-,23+,24-,25-,26-,27-/m0/s1
Instrument: Orbitrap Elite
Instrument type: APCI-ITFT
Ms type: MS2
Ion mode: POSITIVE
Ionization: APCI
Collision energy: 35 CID
Column name: Acquity CSHC18
Retention time: 0.100 min
Base peak: 398.34280
Precursor m/z: 398.34280
Precursor type: [M+H]+
Precursor intensity: 54790560
m/z	relative intensity
126.1281	5
145.1009	10
159.1172	10
204.1753	5
218.1902	13
246.2206	7
298.2521	5
300.2682	8
328.3	26
380.3312	999
382.3363	5
