Mass spectrum: L-Asparagine; LC-ESI-ITFT; MS2; CE: 20;  [M-H]-
Name: L-Asparagine
Class: Organic acids and derivatives; Carboxylic acids and derivatives; Amino acids, peptides, and analogues
Formula: C4H8N2O3
Exact mass: 132.05349
SMILES: N[C@@H](CC(N)=O)C(O)=O
InChI: InChI=1S/C4H8N2O3/c5-2(4(8)9)1-3(6)7/h2H,1,5H2,(H2,6,7)(H,8,9)/t2-/m0/s1
Instrument: Thermo Scientific Q-Exactive Focus
Instrument type: LC-ESI-ITFT
Ms type: MS2
Ion mode: NEGATIVE
Ionization: ESI
Collision energy: 20
Column name: Acquity CSHC18
Retention time: 0.644 min
Base peak: 131.04622
Precursor m/z: 131.04622
Precursor type: [M-H]-
m/z	relative intensity
58.0286	468
70.0286	999
71.0126	77
71.0238	302
72.0079	623
95.0238	137
96.0079	95
97.9342	19
113.0345	327
114.0185	448
