Mass spectrum: SUCROSE; LC-ESI-QFT; MS2; CE: 30eV;  [M-H]-
Name: SUCROSE
Class: NA
Formula: C12H22O11
Exact mass: 342.11621
SMILES: OC[C@H]1O[C@@](CO)(O[C@H]2O[C@H](CO)[C@@H](O)[C@H](O)[C@H]2O)[C@@H](O)[C@@H]1O
InChI: InChI=1S/C12H22O11/c13-1-4-6(16)8(18)9(19)11(21-4)23-12(3-15)10(20)7(17)5(2-14)22-12/h4-11,13-20H,1-3H2/t4-,5-,6-,7-,8+,9-,10+,11-,12+/m1/s1
Instrument: Q-Exactive Orbitrap, Thermo Scientfic; Ultimate 3000 HPLC, Thermo Scientfic
Instrument type: LC-ESI-QFT
Ms type: MS2
Ion mode: NEGATIVE
Ionization: ESI
Collision energy: 30eV
Column name: Acquity CSHC18
Retention time: 0.624 min
Base peak: 341.1089
Precursor m/z: 341.1089
Precursor type: [M-H]-
Precursor intensity: 134
m/z	relative intensity
51.8571	1
52.3143	1
52.4857	1
52.9448	1
53.4805	1
53.6746	1
53.6985	1
53.782	1
55.0174	2
55.2554	2
56.9966	1
57.0331	4
58.2307	1
58.7719	1
59.0123	682
59.1074	1
59.5922	1
60.0156	8
61.6195	1
68.4027	1
68.9639	2
71.0122	486
72.0156	3
73.0278	9
83.0122	5
85.0278	29
87.0071	19
89.0228	999
90.0261	12
95.0122	22
99.0072	3
100.667	1
101.0228	353
101.3875	2
101.4628	2
101.7419	2
102.026	4
103.6942	2
113.0229	275
119.0335	382
120.0369	4
125.0229	4
131.0336	42
143.0337	62
146.9373	5
149.0444	35
161.023	2
161.0443	54
167.5453	2
179.0474	3
179.0552	113
186.4715	2
206.6804	2
208.2969	2
215.7613	2
217.6008	2
221.7196	2
222.4227	2
286.2	2
309.1252	2
312.3384	2
316.7384	2
325.085	2
341.1092	39
364.818	2
