Mass spectrum: Ureidopropionic acid; LC-ESI-QTOF; MS2; CE: 10;  [M-H]-
Name: Ureidopropionic acid
Class: NA
Formula: C4H8N2O3
Exact mass: 132.05349
SMILES: NC(=O)NCCC(O)=O
InChI: InChI=1S/C4H8N2O3/c5-4(9)6-2-1-3(7)8/h1-2H2,(H,7,8)(H3,5,6,9)
Instrument: impact II
Instrument type: LC-ESI-QTOF
Ms type: MS2
Ion mode: NEGATIVE
Ionization: ESI
Collision energy: 10
Column name: Acquity CSHC18
Retention time: 1.787 min
Base peak: 131.04630
Precursor m/z: 131.04630
Precursor type: [M-H]-
m/z	relative intensity
59.0138	27
59.0251	27
60.0095	2
71.0134	4
88.0403	999
88.0514	52
88.0613	2
88.0829	2
88.0984	4
88.1075	4
88.116	7
88.1291	3
88.1589	2
88.169	4
88.1946	2
88.2029	2
88.2106	2
88.2301	2
88.2616	2
88.2734	2
88.2975	2
88.3144	2
88.3217	2
88.3426	2
88.3546	2
88.4063	2
88.4288	2
88.4378	2
89.0437	35
114.0195	5
131.0461	19
