Mass spectrum: N-Acetyl-L-aspartic acid; ESI-TOF; MS2; CE: 0.6458333;  [M+H]+
Name: N-Acetyl-L-aspartic acid
Class: NA
Formula: C6H9NO5
Exact mass: 175.04807
SMILES: CC(=O)NC(CC(O)=O)C(O)=O
InChI: InChI=1S/C6H9NO5/c1-3(8)7-4(6(11)12)2-5(9)10/h4H,2H2,1H3,(H,7,8)(H,9,10)(H,11,12)
Instrument: waters xevo g2 TOF
Instrument type: ESI-TOF
Ms type: MS2
Ion mode: POSITIVE
Ionization: ESI
Collision energy: 0.6458333
Column name: Acquity CSHC18
Retention time: 0.741 min
Base peak: 176.05607
Precursor m/z: 176.05607
Precursor type: [M+H]+
m/z	relative intensity
88.0399	999
99.0082	73
116.0345	76
130.0502	28
134.0451	434
139.9798	30
140.9875	226
141.9955	12
158.0451	53
158.9971	42
160.9902	28
170.0128	116
173.0006	20
176.0555	234
185.985	100
189.9809	32
195.0711	5
198.0377	75
199.0405	20
214.0033	27
226.0403	599
245.0219	37
351.1025	19
371.0402	23
373.0842	25
386.0033	80
389.0504	72
404.0159	30
425.9947	5
808.0298	2
