Mass spectrum: Emodin; LC-ESI-QTOF; MS2; CE: 50eV;  [M-H]-
Name: Emodin
Class: Anthraquinone
Formula: C15H10O5
Exact mass: 270.0528
SMILES: CC1=CC2=C(C(=C1)O)C(=O)C3=C(C2=O)C=C(C=C3O)O
InChI: InChI=1S/C15H10O5/c1-6-2-8-12(10(17)3-6)15(20)13-9(14(8)19)4-7(16)5-11(13)18/h2-5,16-18H,1H3
Instrument: TIMS-TOF Pro, Bruker Daltonik; Elute UHPLC System, Bruker Daltonik
Instrument type: LC-ESI-QTOF
Ms type: MS2
Ion mode: NEGATIVE
Ionization: ESI
Collision energy: 50eV
Column name: Acquity CSHC18
Retention time: 10.036 min
Base peak: 269.0413
Precursor m/z: 269.0413
Precursor type: [M-H]-
Precursor intensity: 406953.2
m/z	relative intensity
41.0035	29
47.1421	3
55.3821	2
57.9732	6
63.0236	9
65.0029	13
65.423	5
77.0373	9
78.9281	4
82.0985	7
89.0382	16
91.019	10
99.1363	7
99.6535	9
101.0387	10
103.0535	15
105.0333	137
105.2354	3
106.0376	11
113.0369	14
115.0541	64
116.0558	4
117.0328	7
126.0459	4
127.0516	11
128.497	4
130.0405	7
132.3141	7
134.0609	6
134.9936	6
135.8781	6
136.5111	6
137.2711	9
139.054	20
139.7223	5
140.0598	5
141.0674	15
141.8025	6
143.0482	29
144.0513	8
145.0636	5
146.2148	6
149.8829	5
151.053	18
152.0604	13
153.0693	20
154.0403	32
155.0478	19
157.0608	8
157.4978	7
158.0682	11
159.0431	7
160.9697	5
165.0826	4
167.0474	20
169.0669	12
170.0339	3
171.0428	78
172.0486	6
173.0593	7
175.0417	3
179.0445	5
180.0566	21
181.0629	28
182.0338	62
182.1955	3
183.0393	9
184.0497	6
185.0586	45
187.035	11
195.0436	39
196.0512	29
197.057	46
198.0276	9
199.0385	12
207.0409	4
210.0328	23
212.0645	5
224.0425	31
224.9615	3
225.0537	180
226.0578	16
227.0308	13
228.0416	3
232.1385	3
240.0386	26
241.0461	80
243.0355	3
268.7104	5
268.9482	999
269.212	10
269.2909	11
269.388	7
269.5036	21
