Mass spectrum: ADENINE; LC-ESI-QTOF; MS2; CE: 10;  [M+H]+
Name: ADENINE
Class: NA
Formula: C5H5N5
Exact mass: 135.0545
SMILES: NC1=C2NC=NC2=NC=N1
InChI: InChI=1S/C5H5N5/c6-4-3-5(9-1-7-3)10-2-8-4/h1-2H,(H3,6,7,8,9,10)
Instrument: Agilent 6530Â Q-TOF LC/MS
Instrument type: LC-ESI-QTOF
Ms type: MS2
Ion mode: POSITIVE
Ionization: ESI
Collision energy: 10
Column name: NA
Retention time: 0.200 min
Base peak: 136.06323
Precursor m/z: 136.06323
Precursor type: [M+H]+
Precursor intensity: 64.5
m/z	relative intensity
65.0137	15
92.0243	17
94.0397	23
109.0472	58
119.0348	277
136.0608	999
