Mass spectrum: OROTATE; LC-ESI-QTOF; MS2; CE: 10;  [M-H]-
Name: OROTATE
Class: NA
Formula: C5H4N2O4
Exact mass: 156.01711
SMILES: OC(=O)C1=CC(=O)NC(=O)N1
InChI: InChI=1S/C5H4N2O4/c8-3-1-2(4(9)10)6-5(11)7-3/h1H,(H,9,10)(H2,6,7,8,11)
Instrument: Agilent 6530Â Q-TOF LC/MS
Instrument type: LC-ESI-QTOF
Ms type: MS2
Ion mode: NEGATIVE
Ionization: ESI
Collision energy: 10
Column name: NA
Retention time: 0.200 min
Base peak: 155.01026
Precursor m/z: 155.01026
Precursor type: [M-H]-
Precursor intensity: 135
m/z	relative intensity
40.0203	165
42.0088	632
111.0433	999
