Mass spectrum: Trimethylamine N-oxide; ESI-TOF; MS2; CE: 0.6458333;  [M+H]+
Name: Trimethylamine N-oxide
Class: NA
Formula: C3H9NO
Exact mass: 75.06841
SMILES: C[N+](C)(C)[O-]
InChI: InChI=1S/C3H9NO/c1-4(2,3)5/h1-3H3
Instrument: waters xevo g2 TOF
Instrument type: ESI-TOF
Ms type: MS2
Ion mode: POSITIVE
Ionization: ESI
Collision energy: 0.6458333
Column name: Acquity CSHC18
Retention time: 0.455 min
Base peak: 76.07641
Precursor m/z: 76.07641
Precursor type: [M+H]+
m/z	relative intensity
76.0772	367
95.9742	2
97.9696	999
98.0585	110
98.9639	2
99.9699	227
103.9597	20
129.8807	19
137.9885	2
139.9651	2
140.996	2
141.9594	101
143.96	2
145.9559	2
151.145	2
152.1484	2
154.9914	2
159.9696	2
160.0295	46
172.8625	138
173.1283	2
173.8706	58
182.9855	2
184.9867	2
186.9825	2
188.9831	2
217.8585	29
241.8854	2
253.071	2
258.8865	2
270.0733	2
296.0664	2
