Mass spectrum: 17-phenyl trinor Prostaglandin D2; ESI-TOF; MS2; CE: 0.6458333;  [M+H]+
Name: 17-phenyl trinor Prostaglandin D2
Class: NA
Formula: C23H30O5
Exact mass: 386.20932
SMILES: O[C@@H]1[C@H](C/C=C\CCCC(O)=O)[C@@H](/C=C/[C@@H](O)CCC2=CC=CC=C2)C(C1)=O
InChI: InChI=1S/C23H30O5/c24-18(13-12-17-8-4-3-5-9-17)14-15-20-19(21(25)16-22(20)26)10-6-1-2-7-11-23(27)28/h1,3-6,8-9,14-15,18-21,24-25H,2,7,10-13,16H2,(H,27,28)/b6-1-,15-14+/t18-,19+,20+,21-/m0/s1
Instrument: waters xevo g2 TOF
Instrument type: ESI-TOF
Ms type: MS2
Ion mode: POSITIVE
Ionization: ESI
Collision energy: 0.6458333
Column name: Acquity CSHC18
Retention time: 3.419 min
Base peak: 387.21732
Precursor m/z: 387.21732
Precursor type: [M+H]+
m/z	relative intensity
92.0571	44
105.0706	338
115.0545	112
117.0709	999
118.0741	69
128.0625	177
131.0862	603
165.0717	89
166.0791	59
178.0771	57
179.087	248
180.0929	40
181.1011	137
183.0984	66
190.0763	39
191.0833	89
203.1055	105
205.1033	307
206.1058	71
207.1161	367
217.1114	55
221.1313	123
223.1119	78
231.116	90
259.1497	30
268.0461	45
297.1662	117
315.1753	127
333.185	349
351.1955	176
