Mass spectrum: INDOLE-3-ETHANOL; LC-ESI-QFT; MS2; CE: 30eV;  [M+H]+
Name: INDOLE-3-ETHANOL
Class: NA
Formula: C10H11NO
Exact mass: 161.08406
SMILES: OCCC1=CNC2=CC=CC=C12
InChI: InChI=1S/C10H11NO/c12-6-5-8-7-11-10-4-2-1-3-9(8)10/h1-4,7,11-12H,5-6H2
Instrument: Q-Exactive Orbitrap, Thermo Scientfic; Ultimate 3000 HPLC, Thermo Scientfic
Instrument type: LC-ESI-QFT
Ms type: MS2
Ion mode: POSITIVE
Ionization: ESI
Collision energy: 30eV
Column name: Acquity CSHC18
Retention time: 7.072 min
Base peak: 162.0913
Precursor m/z: 162.0913
Precursor type: [M+H]+
Precursor intensity: 200
m/z	relative intensity
52.5178	1
53.0899	1
57.0707	1
58.9843	1
59.5086	1
67.3942	1
69.4428	1
71.544	1
85.4383	1
86.0971	8
89.0604	1
90.8026	1
92.0362	1
97.0082	5
101.0964	1
106.9345	1
111.1415	1
115.0546	2
116.9723	2
117.0578	1
117.0704	11
117.9799	11
120.024	15
130.0654	18
130.7827	1
131.0688	5
143.0733	4
144.0811	999
145.0843	53
155.0603	1
162.0916	270
162.1496	2
163.0948	17
