Mass spectrum: Harmane; LC-ESI-QTOF; MS2; CE: 15;  [M-H]-
Name: Harmane
Class: NA
Formula: C12H10N2
Exact mass: 182.0844
SMILES: CC1=NC=CC2=C1NC3=CC=CC=C23
InChI: InChI=1S/C12H10N2/c1-8-12-10(6-7-13-8)9-4-2-3-5-11(9)14-12/h2-7,14H,1H3
Instrument: Bruker MicrOTOF-Q
Instrument type: LC-ESI-QTOF
Ms type: MS2
Ion mode: NEGATIVE
Ionization: ESI
Collision energy: 15
Column name: Acquity CSHC18
Retention time: NA
Base peak: 181.0771
Precursor m/z: 181.0771
Precursor type: [M-H]-
m/z	relative intensity
45.9779	34
46.4894	39
48.1388	43
49.8068	31
50.7978	35
51.4204	26
53.0405	45
53.7431	45
55.3926	29
56.2532	45
56.8304	28
57.5486	32
58.2994	36
58.8373	38
59.7011	33
61.3305	30
62.3177	30
63.1522	36
64.2314	39
65.0342	31
66.1302	37
69.7037	58
70.1345	36
70.8992	23
72.159	30
73.7932	35
74.8568	40
75.6131	32
77.6091	33
79.3797	39
79.9135	23
80.6186	33
82.2752	37
83.4426	31
85.2211	29
86.3241	38
87.1678	28
89.6461	35
90.3484	33
91.2407	35
92.4794	32
92.9547	38
93.7073	35
95.2065	48
95.6581	52
96.7828	51
97.5628	32
98.3557	33
98.9924	24
100.2194	41
102.1417	25
103.8007	33
104.7694	23
107.5997	28
108.2892	32
109.1047	38
110.2523	38
112.0957	33
113.6667	26
114.6788	46
117.0488	30
119.2717	22
120.1975	24
123.103	35
125.2362	38
125.9696	47
127.2696	31
128.2987	45
129.6602	36
131.3941	36
132.253	26
133.702	30
135.086	40
136.3057	44
137.465	42
140.0484	85
141.6805	34
143.0878	31
146.2424	30
146.7989	47
149.2031	36
150.541	38
152.5604	25
153.0935	28
154.0485	39
154.6272	49
156.1346	36
159.5438	31
161.5328	37
163.9927	33
165.0431	149
165.9194	30
167.1409	44
168.9078	28
169.5609	39
170.1975	26
171.6605	45
173.0647	32
173.7804	41
176.397	27
178.3162	38
179.4074	27
180.7186	999
181.9587	442
182.6641	32
227.8066	26
232.6381	22
243.6731	42
259.4249	25
269.3559	25
299.7379	26
307.0398	28
321.5447	30
391.8346	25
434.0226	29
507.7568	38
709.0141	36
717.1664	24
750.4998	27
779.6894	29
826.3521	36
909.4874	36
977.3004	22
