Mass spectrum: 16,16-dimethyl Prostaglandin A2; ESI-TOF; MS2; CE: 0.6458333;  [M+H]+
Name: 16,16-dimethyl Prostaglandin A2
Class: NA
Formula: C22H34O4
Exact mass: 362.24571
SMILES: O=C1[C@H](C/C=C\CCCC(O)=O)[C@@H](/C=C/[C@@H](O)C(C)(C)CCCC)C=C1
InChI: InChI=1S/C22H34O4/c1-4-5-16-22(2,3)20(24)15-13-17-12-14-19(23)18(17)10-8-6-7-9-11-21(25)26/h6,8,12-15,17-18,20,24H,4-5,7,9-11,16H2,1-3H3,(H,25,26)/b8-6-,15-13+/t17-,18-,20-/m1/s1
Instrument: waters xevo g2 TOF
Instrument type: ESI-TOF
Ms type: MS2
Ion mode: POSITIVE
Ionization: ESI
Collision energy: 0.6458333
Column name: Acquity CSHC18
Retention time: 4.380 min
Base peak: 363.25371
Precursor m/z: 363.25371
Precursor type: [M+H]+
m/z	relative intensity
69.0696	204
95.0854	525
109.0657	161
111.0812	46
121.0647	135
123.0811	304
135.0813	126
137.133	195
145.0663	409
151.0735	88
154.0772	55
159.0812	999
160.0848	101
166.0645	8
168.0963	54
169.1581	8
173.0972	428
179.0843	109
186.1043	304
187.1119	456
191.1071	70
192.0975	8
197.1123	85
201.1264	288
203.1074	105
207.1168	73
212.6132	8
215.1077	177
219.1752	99
225.1234	63
229.1426	62
231.1723	97
243.1746	987
244.1769	119
247.0986	244
249.1743	39
262.0295	88
267.1917	66
271.0682	66
281.2294	56
301.1781	8
309.2203	384
313.1108	230
327.1836	764
328.2355	8
329.2371	8
345.2416	195
347.2507	8
351.2517	63
363.2521	8
364.2157	8
364.7171	8
365.2187	8
