Mass spectrum: Hippuric acid; LC-ESI-ITFT; MS2; CE: 10;  [M-H]-
Name: Hippuric acid
Class: Benzenoids; Benzene and substituted derivatives; Benzoic acids and derivatives
Formula: C9H9NO3
Exact mass: 179.05824
SMILES: OC(=O)CNC(=O)C1=CC=CC=C1
InChI: InChI=1S/C9H9NO3/c11-8(12)6-10-9(13)7-4-2-1-3-5-7/h1-5H,6H2,(H,10,13)(H,11,12)
Instrument: Thermo Scientific Q-Exactive Focus
Instrument type: LC-ESI-ITFT
Ms type: MS2
Ion mode: NEGATIVE
Ionization: ESI
Collision energy: 10
Column name: Acquity CSHC18
Retention time: 0.360 min
Base peak: 178.05096
Precursor m/z: 178.05096
Precursor type: [M-H]-
m/z	relative intensity
58.6059	5
99.1794	5
100.1788	5
112.3492	5
118.6362	5
131.9278	5
132.4256	5
134.06	999
175.3509	5
178.05	938
