Mass spectrum: Norvaline; LC-ESI-QTOF; MS2; CE: 60;  [M+H]+
Name: Norvaline
Class: NA
Formula: C5H11NO2
Exact mass: 117.07898
SMILES: CCCC(C(=O)O)N
InChI: InChI=1S/C5H11NO2/c1-2-3-4(6)5(7)8/h4H,2-3,6H2,1H3,(H,7,8)
Instrument: impact II
Instrument type: LC-ESI-QTOF
Ms type: MS2
Ion mode: POSITIVE
Ionization: ESI
Collision energy: 60
Column name: Acquity CSHC18
Retention time: 1.792 min
Base peak: 118.08610
Precursor m/z: 118.08610
Precursor type: [M+H]+
m/z	relative intensity
44.9975	335
45.034	812
50.0162	226
51.0233	145
53.002	157
53.0143	999
53.0389	475
53.0463	123
53.9977	315
54.0103	302
55.0182	780
55.0548	573
56.0503	524
57.0542	175
58.0657	395
