Mass spectrum: DOPAMINE; LC-ESI-QFT; MS2; CE: 30eV;  [M+H]+
Name: DOPAMINE
Class: NA
Formula: C8H11NO2
Exact mass: 153.07898
SMILES: NCCC1=CC=C(O)C(O)=C1
InChI: InChI=1S/C8H11NO2/c9-4-3-6-1-2-7(10)8(11)5-6/h1-2,5,10-11H,3-4,9H2
Instrument: Q-Exactive Orbitrap, Thermo Scientfic; Ultimate 3000 HPLC, Thermo Scientfic
Instrument type: LC-ESI-QFT
Ms type: MS2
Ion mode: POSITIVE
Ionization: ESI
Collision energy: 30eV
Column name: Acquity CSHC18
Retention time: 0.717 min
Base peak: 154.0863
Precursor m/z: 154.0863
Precursor type: [M+H]+
Precursor intensity: 163
m/z	relative intensity
51.3427	3
51.4686	4
52.2782	4
52.6849	4
59.0317	4
63.0235	4
65.0393	49
66.304	4
67.9241	6
70.3326	4
76.611	4
81.0707	20
86.3575	5
89.4088	6
91.0549	999
92.0583	24
109.0654	88
109.1017	6
110.5959	5
110.5998	4
114.972	27
119.0496	759
120.053	30
124.1581	5
130.0471	6
130.9823	34
138.0634	525
138.0714	6
139.9823	5
147.4516	6
153.9976	7
154.0866	174
154.6944	5
155.0901	7
