Mass spectrum: theophylline; LC-ESI-ITFT; MS2; CE: 0.3;  [M-H]-
Name: theophylline
Class: alkaloids
Formula: C7H8N4O2
Exact mass: 180.0647
SMILES: CN1C2=C(C(=O)N(C1=O)C)NC=N2
InChI: InChI=1S/C7H8N4O2/c1-10-5-4(8-3-9-5)6(12)11(2)7(10)13/h3H,1-2H3,(H,8,9)
Instrument: LTQ-Orbitrap XL hybrid mass spectrometer (Thermo Scientific)
Instrument type: LC-ESI-ITFT
Ms type: MS2
Ion mode: NEGATIVE
Ionization: ESI
Collision energy: 0.3
Column name: Acquity CSHC18
Retention time: 5.306 min
Base peak: 179.0577
Precursor m/z: 179.0577
Precursor type: [M-H]-
Precursor intensity: 35626500
m/z	relative intensity
51.4778	3
63.3091	3
71.8262	6
72.6154	2
75.6916	3
78.9343	3
85.3725	2
99.8819	3
104.7883	3
122.0365	11
164.0345	112
178.0197	6
178.3646	6
179.0405	3
179.0427	3
179.0448	3
179.0481	7
179.053	14
179.0578	999
179.0661	7
179.0683	4
179.0697	4
179.0717	4
179.075	3
