Mass spectrum: Sinapinic acid; LC-ESI-QTOF; MS2; CE: 7-62eV;  [M-H]-
Name: Sinapinic acid
Class: Phenolics
Formula: C11H12O5
Exact mass: 224.0685
SMILES: COC1=CC(=CC(=C1O)OC)C=CC(=O)O
InChI: InChI=1S/C11H12O5/c1-15-8-5-7(3-4-10(12)13)6-9(16-2)11(8)14/h3-6,14H,1-2H3,(H,12,13)
Instrument: Bruker MicrOTOF-Q
Instrument type: LC-ESI-QTOF
Ms type: MS2
Ion mode: NEGATIVE
Ionization: ESI
Collision energy: 7-62eV
Column name: Acquity CSHC18
Retention time: 31.190 min
Base peak: 223.0643
Precursor m/z: 223.0643
Precursor type: [M-H]-
Precursor intensity: 63149.5
m/z	relative intensity
93.0328	24
105.0334	26
109.0263	31
119.0142	31
121.0364	35
122.0364	38
134.0371	39
135.045	41
136.0382	41
137.024	46
148.0207	48
149.0334	71
150.0301	73
151.034	89
152.0099	92
163.0461	101
164.0519	119
165.0324	157
166.0239	214
167.0347	225
169.0533	280
179.0776	280
193.0259	296
194.023	349
195.0182	372
207.0315	435
208.0458	652
209.0442	975
223.0738	999
