Mass spectrum: Narirutin; LC-ESI-ITFT; MS2; CE: 45eV;  [M+H]+
Name: Narirutin
Class: Flavonoid
Formula: C27H32O14
Exact mass: 580.1792
SMILES: CC1C(C(C(C(O1)OCC2C(C(C(C(O2)OC3=CC(=C4C(=O)CC(OC4=C3)C5=CC=C(C=C5)O)O)O)O)O)O)O)O
InChI: InChI=1S/C27H32O14/c1-10-20(31)22(33)24(35)26(38-10)37-9-18-21(32)23(34)25(36)27(41-18)39-13-6-14(29)19-15(30)8-16(40-17(19)7-13)11-2-4-12(28)5-3-11/h2-7,10,16,18,20-29,31-36H,8-9H2,1H3
Instrument: LTQ Orbitrap XL, Thermo Scientfic; Dionex Ultimate 300
Instrument type: LC-ESI-ITFT
Ms type: MS2
Ion mode: POSITIVE
Ionization: ESI
Collision energy: 45eV
Column name: Alltima C18
Retention time: 11.41 min
Base peak: 581.1840
Precursor m/z: 581.1840
Precursor type: [M+H]+
m/z	relative intensity
271.0651	96
309.284	1
363.3399	1
381.1931	5
399.1415	6
411.2361	1
429.1395	5
434.1109	999
443.166	12
527.1417	26
