Mass spectrum: N-ACETYLCYSTEINE; LC-ESI-QTOF; MS2; CE: 10;  [M-H]-
Name: N-ACETYLCYSTEINE
Class: NA
Formula: C5H9NO3S
Exact mass: 163.03031
SMILES: CC(=O)N[C@@H](CS)C(O)=O
InChI: InChI=1S/C5H9NO3S/c1-3(7)6-4(2-10)5(8)9/h4,10H,2H2,1H3,(H,6,7)(H,8,9)/t4-/m0/s1
Instrument: Agilent 6530Â Q-TOF LC/MS
Instrument type: LC-ESI-QTOF
Ms type: MS2
Ion mode: NEGATIVE
Ionization: ESI
Collision energy: 10
Column name: NA
Retention time: 0.200 min
Base peak: 162.02432
Precursor m/z: 162.02432
Precursor type: [M-H]-
Precursor intensity: 171
m/z	relative intensity
41.0039	149
42.0366	184
57.0399	273
84.0631	372
162.0353	999
