Mass spectrum: Arginine; LC-ESI-QTOF; MS2; CE: 60;  [M+H]+
Name: Arginine
Class: NA
Formula: C6H14N4O2
Exact mass: 174.11168
SMILES: C(CC(C(=O)O)N)CN=C(N)N
InChI: InChI=1S/C6H14N4O2/c7-4(5(11)12)2-1-3-10-6(8)9/h4H,1-3,7H2,(H,11,12)(H4,8,9,10)
Instrument: impact II
Instrument type: LC-ESI-QTOF
Ms type: MS2
Ion mode: POSITIVE
Ionization: ESI
Collision energy: 60
Column name: Acquity CSHC18
Retention time: 1.849 min
Base peak: 175.11890
Precursor m/z: 175.11890
Precursor type: [M+H]+
m/z	relative intensity
53.0398	32
68.0502	52
70.0654	999
71.0704	42
115.0536	26
117.0574	31
144.0796	24
145.0904	24
