Mass spectrum: Nicotianoside Ia; LC-ESI-QTOF; MS2; CE: 16.6eV;  [M+NH4]+
Name: Nicotianoside Ia
Class: Diterpene
Formula: C41H66O19
Exact mass: 862.4198
SMILES: O=C(O)CC(=O)OC[C@H]1O[C@@H](OCC(/C)=C\CCC(\C)=C\CCC(\C)=C\CC[C@](C)(O[C@@H]2O[C@H](CO)[C@@H](O[C@@H]3O[C@@H](C)[C@H](O)[C@@H](O)[C@H]3O)[C@H](O)[C@H]2O)C=C)[C@H](O)[C@@H](O)[C@@H]1O
InChI: InChI=1S/C41H66O19/c1-7-41(6,60-40-36(53)33(50)37(25(18-42)57-40)59-39-35(52)31(48)29(46)24(5)56-39)16-10-15-22(3)12-8-11-21(2)13-9-14-23(4)19-55-38-34(51)32(49)30(47)26(58-38)20-54-28(45)17-27(43)44/h7,11,14-15,24-26,29-40,42,46-53H,1,8-10,12-13,16-20H2,2-6H3,(H,43,44)/b21-11+,22-15+,23-14-/t24-,25+,26+,29-,30+,31+,32-,33+,34+,35+,36+,37+,38+,39-,40-,41+/m0/s1
Instrument: Impact II qTOF
Instrument type: LC-ESI-QTOF
Ms type: MS2
Ion mode: POSITIVE
Ionization: ESI
Collision energy: 16.6eV
Column name: Acquity CSH C18 column (particle size 1.7 μm, column length 2.1 × 50 mm) (Waters)
Retention time: 21.6 min
Base peak: 880.4531
Precursor m/z: 880.4531
Precursor type: [M+NH4]+
m/z	relative intensity
95.0854	6
109.1014	13
111.0443	7
119.0856	15
121.1009	9
127.0395	9
129.055	14
135.1163	7
145.0493	12
147.0652	33
147.1167	6
149.1325	21
161.1332	13
163.0596	6
163.1488	18
175.148	12
177.1639	20
189.1634	14
201.1647	12
203.18	11
213.0395	19
215.1794	33
231.0499	33
231.211	11
237.0756	7
249.0604	75
250.0645	7
255.0871	14
267.0707	8
271.2421	618
272.2455	126
273.0971	21
273.2533	14
289.2527	137
290.2556	24
309.1182	82
310.123	9
315.1071	10
327.1285	10
341.087	18
359.0977	148
360.1009	23
377.1082	75
378.1113	12
381.2798	10
393.1044	10
395.1187	482
396.1221	72
397.1234	13
399.2897	29
400.2931	6
411.1134	61
412.1171	12
413.1296	184
414.1327	30
417.3006	129
418.3039	40
430.1557	28
433.2953	14
435.3109	67
436.3141	16
451.306	50
452.3095	14
468.3317	13
519.2957	14
521.1503	10
537.307	8
539.1599	13
557.1726	67
558.1756	13
575.1828	24
579.3522	13
597.3638	73
598.3682	23
665.3542	9
683.3619	8
845.4164	10
863.4274	12
880.4531	999
