Mass spectrum: 3-METHOXYTYRAMINE; LC-ESI-QFT; MS2; CE: 30eV;  [M+H]+
Name: 3-METHOXYTYRAMINE
Class: NA
Formula: C9H13NO2
Exact mass: 167.09463
SMILES: COC1=C(O)C=CC(CCN)=C1
InChI: InChI=1S/C9H13NO2/c1-12-9-6-7(4-5-10)2-3-8(9)11/h2-3,6,11H,4-5,10H2,1H3
Instrument: Q-Exactive Orbitrap, Thermo Scientfic; Ultimate 3000 HPLC, Thermo Scientfic
Instrument type: LC-ESI-QFT
Ms type: MS2
Ion mode: POSITIVE
Ionization: ESI
Collision energy: 30eV
Column name: Acquity CSHC18
Retention time: 1.290 min
Base peak: 168.1019
Precursor m/z: 168.1019
Precursor type: [M+H]+
Precursor intensity: 144
m/z	relative intensity
57.4977	4
57.5058	4
57.5438	5
64.0661	5
65.0392	35
75.8768	5
76.5599	5
79.0547	11
81.5643	5
91.0548	803
92.0581	39
93.0703	12
95.0497	307
95.0859	6
96.053	8
105.0452	6
105.0705	7
107.086	108
109.1018	13
119.0495	999
120.0528	31
123.0807	67
123.1173	9
136.0521	96
137.0599	95
144.2989	7
152.0788	990
168.1021	127
169.2801	6
