Mass spectrum: Pantothenic acid; LC-ESI-ITFT; MS2; CE: 10;  [M-H]-
Name: Pantothenic acid
Class: Organooxygen compounds; Alcohols and polyols; Polyols
Formula: C9H17NO5
Exact mass: 219.11067
SMILES: CC(C)(CO)[C@@H](O)C(=O)NCCC(O)=O
InChI: InChI=1S/C9H17NO5/c1-9(2,5-11)7(14)8(15)10-4-3-6(12)13/h7,11,14H,3-5H2,1-2H3,(H,10,15)(H,12,13)/t7-/m0/s1
Instrument: Thermo Scientific Q-Exactive Focus
Instrument type: LC-ESI-ITFT
Ms type: MS2
Ion mode: NEGATIVE
Ionization: ESI
Collision energy: 10
Column name: Acquity CSHC18
Retention time: 0.360 min
Base peak: 218.10339
Precursor m/z: 218.10339
Precursor type: [M-H]-
m/z	relative intensity
71.0126	61
71.049	16
88.0392	999
92.5135	1
99.0439	1
109.0469	1
115.0378	1
146.0812	377
146.3546	1
218.1028	635
