Mass spectrum: Adenine; LC-ESI-QTOF; MS2; CE: 30;  [M+H]+
Name: Adenine
Class: NA
Formula: C5H5N5
Exact mass: 135.05450
SMILES: C1=NC2=NC=NC(=C2N1)N
InChI: InChI=1S/C5H5N5/c6-4-3-5(9-1-7-3)10-2-8-4/h1-2H,(H3,6,7,8,9,10)
Instrument: impact II
Instrument type: LC-ESI-QTOF
Ms type: MS2
Ion mode: POSITIVE
Ionization: ESI
Collision energy: 30
Column name: Acquity CSHC18
Retention time: 1.923 min
Base peak: 136.06180
Precursor m/z: 136.06180
Precursor type: [M+H]+
m/z	relative intensity
92.0244	267
119.0351	999
136.0616	316
137.0459	167
