Mass spectrum: Azelaic acid; LC-ESI-ITFT; MS2; CE: 40;  [M-H]-
Name: Azelaic acid
Class: Lipids and lipid-like molecules; Fatty Acyls; Fatty acids and conjugates
Formula: C9H16O4
Exact mass: 188.10486
SMILES: OC(=O)CCCCCCCC(O)=O
InChI: InChI=1S/C9H16O4/c10-8(11)6-4-2-1-3-5-7-9(12)13/h1-7H2,(H,10,11)(H,12,13)
Instrument: Thermo Scientific Q-Exactive Focus
Instrument type: LC-ESI-ITFT
Ms type: MS2
Ion mode: NEGATIVE
Ionization: ESI
Collision energy: 40
Column name: Acquity CSHC18
Retention time: NA
Base peak: 187.09758
Precursor m/z: 187.09758
Precursor type: [M-H]-
m/z	relative intensity
95.049	999
99.5858	781
115.3259	786
119.6583	738
119.844	786
124.8839	832
124.9385	741
167.0983	769
194.9566	737
201.3869	780
