Mass spectrum: 5-trans Fluprostenol isopropyl ester; ESI-TOF; MS2; CE: 6.0000000;  [M+H]+
Name: 5-trans Fluprostenol isopropyl ester
Class: NA
Formula: C26H35F3O6
Exact mass: 500.23857
SMILES: CC(C)OC(=O)CCCC=CCC1C(CC(C1C=CC(COC2=CC=CC(=C2)C(F)(F)F)O)O)O
InChI: InChI=1S/C26H35F3O6/c1-17(2)35-25(33)11-6-4-3-5-10-21-22(24(32)15-23(21)31)13-12-19(30)16-34-20-9-7-8-18(14-20)26(27,28)29/h3,5,7-9,12-14,17,19,21-24,30-32H,4,6,10-11,15-16H2,1-2H3
Instrument: waters xevo g2 TOF
Instrument type: ESI-TOF
Ms type: MS2
Ion mode: POSITIVE
Ionization: ESI
Collision energy: 6.0000000
Column name: Acquity CSHC18
Retention time: 4.522 min
Base peak: 501.24657
Precursor m/z: 501.24657
Precursor type: [M+H]+
m/z	relative intensity
79.0548	1
81.0703	1
83.0504	1
91.055	1
92.0574	1
93.0705	1
105.0715	1
106.0745	1
107.0514	1
115.0562	1
117.0707	1
118.0745	1
119.0866	12
120.0889	1
121.0301	47
123.0826	1
128.064	1
129.0709	1
131.0861	18
133.0836	5
135.0813	5
141.0344	6
143.0872	12
144.0949	1
145.1022	30
146.1054	1
147.1181	54
148.1185	1
149.0209	6
153.0705	1
154.0769	1
155.0862	1
156.0913	1
157.1014	1
159.0819	1
161.0975	1
165.0722	1
166.0774	1
167.0849	1
168.0932	1
169.101	8
171.1174	62
172.1222	1
173.1341	5
177.1659	6
179.0969	5
181.1023	28
182.1067	1
183.0647	30
187.1131	18
189.1284	383
190.1311	42
192.0914	1
197.133	85
198.1335	7
199.112	4
201.1266	1
207.1378	578
208.1219	1
210.0629	62
215.1428	49
216.145	1
217.1239	114
218.1249	12
219.1021	54
219.5684	23
225.1285	402
226.1304	1
233.1532	34
235.1327	21
240.0877	22
243.1375	986
244.1416	133
247.0933	6
249.1848	579
250.1407	52
259.1683	46
261.1037	213
262.1517	72
263.0725	1
275.2009	11
277.1797	26
279.1605	80
285.1851	497
286.1885	94
303.1954	999
304.2009	191
305.1997	20
315.0665	1
317.103	1
320.1042	15
321.1682	147
322.2097	60
363.1609	1
375.1116	1
419.1161	1
437.1243	8
447.2246	16
461.122	1
465.177	13
466.2281	7
478.1525	1
479.1355	1
480.1371	1
481.177	1
482.1395	1
483.2352	383
484.2389	110
485.2428	7
497.1449	10
498.1467	1
501.2442	63
502.2454	10
