Mass spectrum: Quercetagetin 7-methyl ether; LC-ESI-QTOF; MS2; CE: 50eV;  [M-H]-
Name: Quercetagetin 7-methyl ether
Class: Flavonol
Formula: C16H12O8
Exact mass: 332.0532
SMILES: COC1=C(C(=C2C(=C1)OC(=C(C2=O)O)C3=CC(=C(C=C3)O)O)O)O
InChI: InChI=1S/C16H12O8/c1-23-10-5-9-11(13(20)12(10)19)14(21)15(22)16(24-9)6-2-3-7(17)8(18)4-6/h2-5,17-20,22H,1H3
Instrument: TIMS-TOF Pro, Bruker Daltonik; Elute UHPLC System, Bruker Daltonik
Instrument type: LC-ESI-QTOF
Ms type: MS2
Ion mode: NEGATIVE
Ionization: ESI
Collision energy: 50eV
Column name: Acquity CSHC18
Retention time: 6.228 min
Base peak: 331.0431
Precursor m/z: 331.0431
Precursor type: [M-H]-
Precursor intensity: 38494.19
m/z	relative intensity
63.5404	5
66.0097	27
70.7856	6
80.584	7
82.0042	136
83.0082	6
93.0322	53
94.1686	6
96.0214	6
109.028	13
109.9982	188
111.0076	113
121.027	52
122.0317	9
123.0073	20
124.0447	6
125.023	16
132.0186	10
136.9868	18
137.9925	42
139.0019	128
140.0094	12
147.472	7
149.0251	11
153.0186	51
156.0133	9
162.1522	11
164.9793	9
165.9894	70
166.2699	7
166.9924	26
178.9939	11
181.012	98
182.0126	7
183.0777	6
193.9814	9
209.0012	8
234.5785	7
244.032	8
272.0289	6
298.005	6
316.0186	566
316.6805	6
317.0229	51
318.0231	9
330.8738	6
331.0402	999
331.2095	7
331.373	6
