Mass spectrum: Methandrostenolone; LC-ESI-QTOF; MS2; CE: 10;  [M+H]+
Name: Methandrostenolone
Class: NA
Formula: C20H28O2
Exact mass: 300.2089
SMILES: C[C@]12CC[C@H]3[C@H]([C@@H]1CC[C@]2(C)O)CCC4=CC(=O)C=C[C@]34C
InChI: InChI=1S/C20H28O2/c1-18-9-6-14(21)12-13(18)4-5-15-16(18)7-10-19(2)17(15)8-11-20(19,3)22/h6,9,12,15-17,22H,4-5,7-8,10-11H2,1-3H3/t15-,16+,17+,18+,19+,20+/m1/s1
Instrument: Agilent 6560Â Ion Mobility Q-TOF LC/MS
Instrument type: LC-ESI-QTOF
Ms type: MS2
Ion mode: POSITIVE
Ionization: ESI
Collision energy: 10
Column name: Acquity CSHC18
Retention time: 0.200 min
Base peak: 301.2167
Precursor m/z: 301.2167
Precursor type: [M+H]+
Precursor intensity: 90.5
m/z	relative intensity
81.0701	119
93.0705	138
95.0867	147
107.0862	166
121.0837	168
135.0982	171
147.0817	195
149.1419	208
161.1148	213
163.1486	224
173.097	422
175.1473	442
283.2116	815
301.2228	999
