Mass spectrum: Kukoamine A; LC-ESI-ITFT; MS2; CE: 35eV;  [M+H]+
Name: Kukoamine A
Class: Phenolamide
Formula: C28H42N4O6
Exact mass: 530.3104
SMILES: C1=CC(=C(C=C1CCC(=O)NCCCNCCCCNCCCNC(=O)CCC2=CC(=C(C=C2)O)O)O)O
InChI: InChI=1S/C28H42N4O6/c33-23-9-5-21(19-25(23)35)7-11-27(37)31-17-3-15-29-13-1-2-14-30-16-4-18-32-28(38)12-8-22-6-10-24(34)26(36)20-22/h5-6,9-10,19-20,29-30,33-36H,1-4,7-8,11-18H2,(H,31,37)(H,32,38)
Instrument: LTQ Orbitrap XL, Thermo Scientfic; Dionex Ultimate 300
Instrument type: LC-ESI-ITFT
Ms type: MS2
Ion mode: POSITIVE
Ionization: ESI
Collision energy: 35eV
Column name: Kinetex XB C18 150*2,1 2,6 Âµm, Phenomenex
Retention time: 7.35675 min
Base peak: 531.3111
Precursor m/z: 531.3111
Precursor type: [M+H]+
m/z	relative intensity
164.9872	16
221.3958	12
222.02	222
293.1157	999
294.1649	3
310.1514	3
367.2258	1
513.2559	115
514.3311	1
