Mass spectrum: Acetylcysteine; LC-ESI-ITFT; MS2; CE: 100;  [M+H]+
Name: Acetylcysteine
Class: Organic acids and derivatives; Carboxylic acids and derivatives; Amino acids, peptides, and analogues
Formula: C5H9NO3S
Exact mass: 163.03031
SMILES: CC(=O)N[C@@H](CS)C(O)=O
InChI: InChI=1S/C5H9NO3S/c1-3(7)6-4(2-10)5(8)9/h4,10H,2H2,1H3,(H,6,7)(H,8,9)/t4-/m0/s1
Instrument: Thermo Scientific Q-Exactive Focus
Instrument type: LC-ESI-ITFT
Ms type: MS2
Ion mode: POSITIVE
Ionization: ESI
Collision energy: 100
Column name: Acquity CSHC18
Retention time: 2.570 min
Base peak: 164.03758
Precursor m/z: 164.03758
Precursor type: [M+H]+
m/z	relative intensity
52.3841	51
55.8893	52
57.9877	999
58.9955	403
65.8656	54
69.3069	54
93.1473	51
126.7762	56
145.4772	53
150.3622	52
