Mass spectrum: 1-lauroyl-2-hydroxy-sn-glycero-3-phosphocholine; ESI-TOF; MS2; CE: 6.0000000;  [M+H]+
Name: 1-lauroyl-2-hydroxy-sn-glycero-3-phosphocholine
Class: NA
Formula: C20H42NO7P
Exact mass: 439.26989
SMILES: [H]OC([H])(C([H])([H])OC(=O)C([H])([H])C([H])([H])C([H])([H])C([H])([H])C([H])([H])C([H])([H])C([H])([H])C([H])([H])C([H])([H])C([H])([H])C([H])([H])[H])C([H])([H])OP(=O)([O-])OC([H])([H])C([H])([H])[N+](C([H])([H])[H])(C([H])([H])[H])C([H])([H])[H]
InChI: InChI=1S/C20H42NO7P/c1-5-6-7-8-9-10-11-12-13-14-20(23)26-17-19(22)18-28-29(24,25)27-16-15-21(2,3)4/h19,22H,5-18H2,1-4H3
Instrument: waters xevo g2 TOF
Instrument type: ESI-TOF
Ms type: MS2
Ion mode: POSITIVE
Ionization: ESI
Collision energy: 6.0000000
Column name: Acquity CSHC18
Retention time: 4.497 min
Base peak: 440.27789
Precursor m/z: 440.27789
Precursor type: [M+H]+
m/z	relative intensity
104.1078	74
148.533	148
149.0345	7
157.5384	40
184.0742	47
185.0777	4
192.9589	3
230.6118	29
231.1135	4
236.9852	1
239.617	85
240.1089	42
240.6191	4
257.2127	3
258.1115	1
260.1317	3
296.0575	5
312.0298	15
314.0252	21
338.633	7
375.1264	2
403.1853	6
422.2671	119
423.2702	26
424.2715	3
429.7128	4
440.3354	999
441.281	466
