Mass spectrum: BIOTIN; LC-ESI-QTOF; MS2; CE: 20;  [M+H]+
Name: BIOTIN
Class: NA
Formula: C10H16N2O3S
Exact mass: 244.08816
SMILES: [H][C@]12CS[C@@H](CCCCC(O)=O)[C@@]1([H])NC(=O)N2
InChI: InChI=1S/C10H16N2O3S/c13-8(14)4-2-1-3-7-9-6(5-16-7)11-10(15)12-9/h6-7,9H,1-5H2,(H,13,14)(H2,11,12,15)/t6-,7-,9-/m0/s1
Instrument: Agilent 6530Â Q-TOF LC/MS
Instrument type: LC-ESI-QTOF
Ms type: MS2
Ion mode: POSITIVE
Ionization: ESI
Collision energy: 20
Column name: NA
Retention time: 0.200 min
Base peak: 245.09148
Precursor m/z: 245.09148
Precursor type: [M+H]+
Precursor intensity: 13.5
m/z	relative intensity
41.039	30
44.9787	30
55.0584	30
61.0496	31
67.059	31
68.0458	31
69.0708	32
74.0046	32
79.0602	32
81.0704	33
82.0486	33
85.0157	34
85.9642	34
87.041	34
93.0605	35
97.0526	35
98.0318	36
99.0359	36
101.0421	37
105.0885	37
106.069	37
107.0836	38
108.0763	38
111.0215	39
112.0262	40
113.0475	40
115.052	41
120.0945	41
121.0669	42
122.0906	42
123.0487	43
125.0402	44
131.022	45
133.0833	47
138.0107	48
139.0698	50
148.0714	54
149.0353	57
150.0831	58
151.0783	59
153.0997	63
154.0727	64
163.0859	65
164.0645	65
165.0938	66
166.0931	67
167.0621	74
175.0822	80
182.0704	89
184.0904	93
192.0557	112
197.0678	124
199.1086	142
209.0844	144
210.0509	148
227.1298	176
227.3847	191
227.5994	212
227.8516	274
245.096	999
