Mass spectrum: Procyanidin dimer B2; LC-ESI-QFT; MS2; CE: NCE_15_30_59;  [M-H]-
Name: Procyanidin dimer B2
Class: NA
Formula: C30H26O12
Exact mass: 578.1424
SMILES: C1C(C(OC2=C1C(=CC(=C2C3C(C(OC4=CC(=CC(=C34)O)O)C5=CC(=C(C=C5)O)O)O)O)O)C6=CC(=C(C=C6)O)O)O
InChI: InChI=1S/C30H26O12/c31-13-7-20(37)24-23(8-13)41-29(12-2-4-16(33)19(36)6-12)27(40)26(24)25-21(38)10-17(34)14-9-22(39)28(42-30(14)25)11-1-3-15(32)18(35)5-11/h1-8,10,22,26-29,31-40H,9H2
Instrument: Thermo_Qexactive_Plus
Instrument type: LC-ESI-QFT
Ms type: MS2
Ion mode: NEGATIVE
Ionization: ESI
Collision energy: NCE_15_30_59
Column name: Acquity CSHC18
Retention time: 3.401 min
Base peak: 577.1360
Precursor m/z: 577.1360
Precursor type: [M-H]-
Precursor intensity: 378603600
m/z	relative intensity
52.7359	27
57.0332	28
69.3534	29
72.9166	29
79.3268	30
83.013	30
97.1278	31
109.0281	32
116.1238	32
123.0439	32
125.0223	33
126.0268	35
137.0235	36
139.0392	37
145.8564	37
149.0231	37
151.0391	39
161.0346	39
162.0304	39
163.0397	40
164.0105	42
165.0183	42
167.0342	44
175.0397	44
177.0189	44
179.0347	46
186.9177	46
187.0402	49
189.0544	50
201.0533	50
202.063	50
203.0582	50
205.0342	50
221.0824	51
227.0726	52
231.0296	52
243.0486	53
245.0653	55
247.0618	55
255.0288	57
256.0362	57
257.0456	59
269.048	62
271.0622	71
273.0413	75
281.0442	79
285.0414	90
287.0555	93
288.0618	93
289.0708	97
290.0783	119
299.0561	123
329.0697	146
339.0879	188
381.1012	218
407.0731	223
408.0842	227
425.0893	278
426.0922	306
448.2254	347
451.1061	470
452.1119	797
559.1247	904
577.1361	999
