Mass spectrum: 4-Guanidinobutanoic acid; ESI-TOF; MS2; CE: 6.0000000;  [M+H]+
Name: 4-Guanidinobutanoic acid
Class: NA
Formula: C5H11N3O2
Exact mass: 145.08513
SMILES: NC(N)=NCCCC(O)=O
InChI: InChI=1S/C5H11N3O2/c6-5(7)8-3-1-2-4(9)10/h1-3H2,(H,9,10)(H4,6,7,8)
Instrument: waters xevo g2 TOF
Instrument type: ESI-TOF
Ms type: MS2
Ion mode: POSITIVE
Ionization: ESI
Collision energy: 6.0000000
Column name: Acquity CSHC18
Retention time: 0.538 min
Base peak: 146.09313
Precursor m/z: 146.09313
Precursor type: [M+H]+
m/z	relative intensity
83.0614	4
86.0612	13
87.0451	65
88.0492	2
98.9626	2
99.9701	12
102.0352	5
104.0713	35
105.0748	1
111.0563	34
112.0587	2
115.9645	1
118.0887	1
126.9725	11
128.0213	109
129.0668	14
133.9283	1
140.9626	5
141.9592	224
145.017	3
146.1904	999
147.0956	276
