Mass spectrum: 1-Methylhistamine; ESI-TOF; MS2; CE: 0.6458333;  [M+H]+
Name: 1-Methylhistamine
Class: NA
Formula: C6H11N3
Exact mass: 125.09530
SMILES: CN1C=NC(CCN)=C1
InChI: InChI=1S/C6H11N3/c1-9-4-6(2-3-7)8-5-9/h4-5H,2-3,7H2,1H3
Instrument: waters xevo g2 TOF
Instrument type: ESI-TOF
Ms type: MS2
Ion mode: POSITIVE
Ionization: ESI
Collision energy: 0.6458333
Column name: Acquity CSHC18
Retention time: 0.455 min
Base peak: 126.10330
Precursor m/z: 126.10330
Precursor type: [M+H]+
m/z	relative intensity
67.0421	35
68.0504	338
81.0453	62
82.0657	131
90.9041	13
94.965	6
96.0683	73
109.0765	391
110.0794	311
124.036	30
126.1894	19
127.1057	28
133.9294	17
150.9958	242
152.0339	25
152.996	160
154.9917	28
162.9911	28
164.9961	169
168.9951	67
178.0065	126
180.0195	226
181.0208	61
182.0282	999
183.0305	248
186.0212	72
198.0322	66
199.0477	15
200.033	27
217.9973	12
224.0313	20
226.0277	349
227.0304	37
228.0284	192
230.0237	61
245.0196	12
249.0673	4
278.09	37
288.0758	5
290.0895	25
303.1038	26
305.1165	26
307.1175	90
308.1192	10
309.113	33
353.1241	34
355.1237	2
360.0319	10
499.0555	2
