Mass spectrum: Nerol; LC-ESI-QTOF; MS2; CE: 15.00;  [2M-2H2O+H]+
Name: Nerol
Class: NA
Formula: C10H18O
Exact mass: 154.1358
SMILES: CC(=CCCC(=CCO)C)C
InChI: InChI=1S/C10H18O/c1-9(2)5-4-6-10(3)7-8-11/h5,7,11H,4,6,8H2,1-3H3
Instrument: Bruker MicrOTOF-Q
Instrument type: LC-ESI-QTOF
Ms type: MS2
Ion mode: POSITIVE
Ionization: ESI
Collision energy: 15.00
Column name: Acquity CSHC18
Retention time: NA
Base peak: 273.2577
Precursor m/z: 273.2577
Precursor type: [2M-2H2O+H]+
m/z	relative intensity
121.0976	64
123.1156	194
133.0975	70
135.1159	153
137.1311	254
147.1163	249
149.1321	792
150.1346	76
151.1446	73
153.13	54
161.1327	131
163.1485	209
167.1428	83
175.1488	115
177.1649	240
179.1471	53
189.1647	294
190.1717	42
191.1799	370
192.1806	61
203.1795	277
204.1849	49
205.1977	81
207.1738	217
209.1953	43
217.1952	403
218.1925	62
231.2103	103
233.2267	80
235.2063	76
273.2584	999
274.2632	193
