Mass spectrum: Prostaglandin F2-alpha Ethanolamide; ESI-TOF; MS2; CE: 6.0000000;  [M+H]+
Name: Prostaglandin F2-alpha Ethanolamide
Class: NA
Formula: C22H39NO5
Exact mass: 397.28282
SMILES: CCCCCC(C=CC1C(CC(C1CC=CCCCC(=O)NCCO)O)O)O
InChI: InChI=1S/C22H39NO5/c1-2-3-6-9-17(25)12-13-19-18(20(26)16-21(19)27)10-7-4-5-8-11-22(28)23-14-15-24/h4,7,12-13,17-21,24-27H,2-3,5-6,8-11,14-16H2,1H3,(H,23,28)
Instrument: waters xevo g2 TOF
Instrument type: ESI-TOF
Ms type: MS2
Ion mode: POSITIVE
Ionization: ESI
Collision energy: 6.0000000
Column name: Acquity CSHC18
Retention time: 3.293 min
Base peak: 398.29082
Precursor m/z: 398.29082
Precursor type: [M+H]+
m/z	relative intensity
113.9649	24
121.1016	3
128.0717	2
142.9924	1
144.1004	1
173.1346	1
174.1122	21
178.5987	10
183.1025	1
187.604	25
188.1061	5
188.5939	3
191.6076	44
192.1082	7
199.1087	2
200.1309	1
200.612	152
201.1148	15
209.6177	249
210.1282	41
218.6216	12
219.1211	4
230.2507	2
238.1475	2
239.1803	2
241.1947	7
247.2044	6
248.6219	3
250.1813	4
255.209	2
257.6257	5
262.178	3
265.1943	10
275.2759	8
278.2128	1
283.2063	97
284.2104	10
300.234	3
301.2175	22
306.2426	21
308.2591	188
309.2624	29
318.2417	130
319.2462	26
320.1627	1
326.2473	4
327.2413	2
334.2768	3
336.2582	152
337.2581	32
338.2506	2
344.2589	999
345.2621	263
346.2644	24
361.1697	9
362.2213	225
363.225	58
364.2729	10
380.2802	866
381.284	198
382.2889	28
383.2774	1
390.1728	14
398.2855	3
