Mass spectrum: D-Galactose; LC-ESI-ITFT; MS2; CE: 40;  [M-H]-
Name: D-Galactose
Class: Organic oxygen compounds; Organooxygen compounds; Carbohydrates and carbohydrate conjugates
Formula: C6H12O6
Exact mass: 180.06339
SMILES: OC[C@H]1O[C@H](O)[C@H](O)[C@@H](O)[C@H]1O
InChI: InChI=1S/C6H12O6/c7-1-2-3(8)4(9)5(10)6(11)12-2/h2-11H,1H2/t2-,3+,4+,5-,6+/m1/s1
Instrument: Thermo Scientific Q-Exactive Focus
Instrument type: LC-ESI-ITFT
Ms type: MS2
Ion mode: NEGATIVE
Ionization: ESI
Collision energy: 40
Column name: Acquity CSHC18
Retention time: 1.475 min
Base peak: 179.05611
Precursor m/z: 179.05611
Precursor type: [M-H]-
m/z	relative intensity
58.0049	62
59.0127	999
65.1288	35
71.0126	414
72.9919	93
78.4566	35
94.963	42
94.9918	38
96.2992	36
186.9558	37
