Mass spectrum: GLUCOSAMINE 6-SULFATE; LC-ESI-QFT; MS2; CE: 30eV;  [M-H]-
Name: GLUCOSAMINE 6-SULFATE
Class: NA
Formula: C6H13NO8S
Exact mass: 259.03619
SMILES: N[C@H]1[C@H](O)O[C@H](COS(O)(=O)=O)[C@@H](O)[C@@H]1O
InChI: InChI=1S/C6H13NO8S/c7-3-5(9)4(8)2(15-6(3)10)1-14-16(11,12)13/h2-6,8-10H,1,7H2,(H,11,12,13)/t2-,3-,4-,5-,6-/m1/s1
Instrument: Q-Exactive Orbitrap, Thermo Scientfic; Ultimate 3000 HPLC, Thermo Scientfic
Instrument type: LC-ESI-QFT
Ms type: MS2
Ion mode: NEGATIVE
Ionization: ESI
Collision energy: 30eV
Column name: Acquity CSHC18
Retention time: 0.560 min
Base peak: 258.0289
Precursor m/z: 258.0289
Precursor type: [M-H]-
Precursor intensity: 123
m/z	relative intensity
51.6834	1
52.9099	1
58.9573	1
59.0122	7
60.5394	1
63.1737	1
66.922	1
71.1734	1
77.5297	1
78.9574	646
79.9556	10
80.4119	1
80.9634	3
84.481	1
94.6103	1
96.9584	309
96.9679	192
100.0388	1
100.8766	1
101.0227	2
102.9471	68
107.7616	1
112.4509	1
122.9223	1
125.613	1
137.2925	2
138.9691	393
138.9781	97
139.9725	2
145.9403	3
146.9371	107
151.9218	1
168.9799	98
169.8755	2
180.9892	1
183.5982	1
184.6755	1
189.1539	1
190.9273	5
199.9947	38
208.4132	1
219.0451	1
222.0072	2
228.0176	3
240.0176	28
240.9986	1
241.0112	95
258.0284	999
259.022	81
259.0324	23
269.0758	1
