Mass spectrum: D-Threitol; ESI-TOF; MS2; CE: 6.0000000;  [M+H]+
Name: D-Threitol
Class: NA
Formula: C4H10O4
Exact mass: 122.05791
SMILES: OCC(O)C(O)CO
InChI: InChI=1S/C4H10O4/c5-1-3(7)4(8)2-6/h3-8H,1-2H2
Instrument: waters xevo g2 TOF
Instrument type: ESI-TOF
Ms type: MS2
Ion mode: POSITIVE
Ionization: ESI
Collision energy: 6.0000000
Column name: Acquity CSHC18
Retention time: 0.564 min
Base peak: 123.06591
Precursor m/z: 123.06591
Precursor type: [M+H]+
m/z	relative intensity
69.0349	289
87.045	367
96.9622	624
101.5237	59
102.072	221
105.0558	999
111.0212	122
118.0296	91
122.0202	33
123.0658	337
124.0291	117
124.9572	34
