Mass spectrum: 5,6-Dihydroconimin; APCI-ITFT; MS2; CE: 35 CID;  [M+H]+
Name: 5,6-Dihydroconimin
Class: NA
Formula: C22H38N2
Exact mass: 330.30350
SMILES: C[C@@]12C(CC[C@]3([H])[C@@]([H])2CC[C@@]45[C@@]3([H])CC[C@@]4([C@H](C)NC5)[H])C[C@@H](NC)CC1
InChI: InChI=1S/C22H38N2/c1-14-18-6-7-20-17-5-4-15-12-16(23-3)8-10-21(15,2)19(17)9-11-22(18,20)13-24-14/h14-20,23-24H,4-13H2,1-3H3/t14-,15?,16-,17+,18+,19-,20-,21-,22-/m0/s1
Instrument: Orbitrap Elite
Instrument type: APCI-ITFT
Ms type: MS2
Ion mode: POSITIVE
Ionization: APCI
Collision energy: 35 CID
Column name: Acquity CSHC18
Retention time: 0.088 min
Base peak: 331.31100
Precursor m/z: 331.31100
Precursor type: [M+H]+
Precursor intensity: 2535364
m/z	relative intensity
131.0864	56
173.1325	171
175.1483	387
201.1634	176
227.1794	57
252.9974	999
269.2263	209
299.2565	200
314.2836	370
