Mass spectrum: Herbacetin 7-methyl ether; LC-ESI-QTOF; MS2; CE: 50eV;  [M-H]-
Name: Herbacetin 7-methyl ether
Class: Flavonol
Formula: C16H12O7
Exact mass: 316.0583
SMILES: COC1=C(C2=C(C(=C1)O)C(=O)C(=C(O2)C3=CC=C(C=C3)O)O)O
InChI: InChI=1S/C16H12O7/c1-22-10-6-9(18)11-13(20)14(21)15(23-16(11)12(10)19)7-2-4-8(17)5-3-7/h2-6,17-19,21H,1H3
Instrument: TIMS-TOF Pro, Bruker Daltonik; Elute UHPLC System, Bruker Daltonik
Instrument type: LC-ESI-QTOF
Ms type: MS2
Ion mode: NEGATIVE
Ionization: ESI
Collision energy: 50eV
Column name: Acquity CSHC18
Retention time: 7.419 min
Base peak: 315.0441
Precursor m/z: 315.0441
Precursor type: [M-H]-
Precursor intensity: 74995.06
m/z	relative intensity
36.9656	12
41.0055	18
54.0108	15
60.99	17
65.0029	140
66.0098	79
67.0179	27
75.6308	14
79.0178	14
82.0043	426
83.0082	33
91.016	43
93.0337	74
94.0035	51
95.0105	14
96.991	34
97.9952	14
104.0242	13
105.0317	190
106.0409	107
107.0483	74
107.316	13
108.0523	16
109.9999	999
111.0027	93
117.0363	19
120.8	12
123.0074	38
125.0213	12
130.5931	18
133.026	24
134.0354	37
135.0413	57
136.9868	67
137.9944	105
139.002	71
140.0095	13
143.0463	13
145.3467	12
151.0104	11
153.0166	344
158.0287	16
163.0006	23
164.9814	47
165.9874	233
166.9965	37
169.028	16
181.0121	550
182.0148	26
183.033	16
199.0363	22
207.9927	35
222.0105	14
244.0371	24
256.0284	11
260.0556	11
271.0547	28
272.0264	42
287.0514	839
288.054	152
300.0227	471
301.0258	83
315.0469	571
