Mass spectrum: UDP-GlcNAc; LC-ESI-QTOF; MS2; CE: -10, -35, -60V;  [M-H]-
Name: UDP-GlcNAc
Class: NA
Formula: C17H27N3O17P2
Exact mass: 607.0816
SMILES: CC(=O)NC1C(C(C(OC1OP(=O)(O)OP(=O)(O)OCC2C(C(C(O2)N3C=CC(=O)NC3=O)O)O)CO)O)O
InChI: InChI=1S/C17H27N3O17P2/c1-6(22)18-10-13(26)11(24)7(4-21)35-16(10)36-39(31,32)37-38(29,30)33-5-8-12(25)14(27)15(34-8)20-3-2-9(23)19-17(20)28/h2-3,7-8,10-16,21,24-27H,4-5H2,1H3,(H,18,22)(H,29,30)(H,31,32)(H,19,23,28)
Instrument: TripleToF 5600; Sciex
Instrument type: LC-ESI-QTOF
Ms type: MS2
Ion mode: NEGATIVE
Ionization: ESI
Collision energy: -10, -35, -60V
Column name: Acquity CSHC18
Retention time: 9.807 min
Base peak: 606.0894
Precursor m/z: 606.0894
Precursor type: [M-H]-
Precursor intensity: 394337.9
m/z	relative intensity
78.714	5
78.9584	155
96.9692	111
111.0205	78
138.9727	8
146.9849	5
150.9825	11
158.9283	326
160.9296	7
161.9951	14
162.9813	13
174.981	42
176.9379	216
192.9945	18
211.0055	18
222.0244	18
240.0323	40
246.0159	19
260.9564	70
264.0349	32
272.9636	394
273.9604	44
274.9661	7
280.0315	10
282.0432	397
283.0421	54
284.0429	6
290.9773	14
300.0557	70
305.0206	68
323.0332	84
324.0311	14
343.9957	17
362.0118	143
363.0277	14
380.0196	14
384.9893	410
385.9927	65
386.9862	20
403.0059	139
404.0097	14
508.0921	8
526.1134	12
604.0669	30
604.1398	10
604.1641	10
605.0839	7
606.0774	999
