Mass spectrum: (+)-Borneol; APCI-ITFT; MS2; CE: HCD 90;  [M-H]-
Name: (+)-Borneol
Class: NA
Formula: C10H18O
Exact mass: 154.13577
SMILES: CC1(C2CCC1(C(C2)O)C)C
InChI: InChI=1S/C10H18O/c1-9(2)7-4-5-10(9,3)8(11)6-7/h7-8,11H,4-6H2,1-3H3
Instrument: Orbitrap Elite
Instrument type: APCI-ITFT
Ms type: MS2
Ion mode: NEGATIVE
Ionization: APCI
Collision energy: HCD 90
Column name: Acquity CSHC18
Retention time: 0.066 min
Base peak: 153.12870
Precursor m/z: 153.12870
Precursor type: [M-H]-
Precursor intensity: 284465.4
m/z	relative intensity
54.6655	5
59.1595	5
61.541	5
73.2581	5
75.3029	5
79.164	5
84.0556	6
89.3246	5
101.0539	6
103.4464	5
109.0904	5
111.8607	6
123.081	5
124.0847	6
129.1767	6
131.2859	5
135.9154	6
137.9275	6
138.0356	5
140.1164	5
143.9358	5
151.1135	129
152.1162	16
153.1295	999
