Mass spectrum: D-Galactose; ESI-TOF; MS2; CE: 0.6458333;  [M+H]+
Name: D-Galactose
Class: NA
Formula: C6H12O6
Exact mass: 180.06339
SMILES: OCC1OC(O)C(O)C(O)C1O
InChI: InChI=1S/C6H12O6/c7-1-2-3(8)4(9)5(10)6(11)12-2/h2-11H,1H2
Instrument: waters xevo g2 TOF
Instrument type: ESI-TOF
Ms type: MS2
Ion mode: POSITIVE
Ionization: ESI
Collision energy: 0.6458333
Column name: Acquity CSHC18
Retention time: 0.556 min
Base peak: 181.07139
Precursor m/z: 181.07139
Precursor type: [M+H]+
m/z	relative intensity
72.9381	594
85.029	393
91.0397	9
96.9616	9
97.0291	9
114.9574	428
127.0396	130
137.9663	38
139.9561	372
145.05	9
163.0603	9
169.0066	9
169.9671	500
173.9616	758
174.9696	677
185.9615	420
187.0792	9
198.0982	9
200.0449	146
200.5466	9
203.0531	999
203.9729	367
215.9736	9
216.979	353
219.0191	174
233.0239	9
234.9897	296
261.9784	9
275.9927	377
276.9988	140
287.8902	9
290.0806	9
292.0082	9
294.0043	467
295.0126	195
297.0118	9
303.0022	9
325.113	9
367.1477	9
383.116	253
414.0463	9
415.0516	9
