Mass spectrum: Chloro-Phenylalanine; LC-ESI-QTOF; MS2; CE: 20 / 50;  [M+H]+
Name: Chloro-Phenylalanine
Class: NA
Formula: C9H10ClNO2
Exact mass: 199.04001
SMILES: C1=CC(=CC=C1CC(C(=O)O)N)Cl
InChI: InChI=1S/C9H10ClNO2/c10-7-3-1-6(2-4-7)5-8(11)9(12)13/h1-4,8H,5,11H2,(H,12,13)
Instrument: impact II
Instrument type: LC-ESI-QTOF
Ms type: MS2
Ion mode: POSITIVE
Ionization: ESI
Collision energy: 20 / 50
Column name: Acquity CSHC18
Retention time: 1.998 min
Base peak: 200.04670
Precursor m/z: 200.04670
Precursor type: [M+H]+
m/z	relative intensity
118.0652	485
119.0724	243
154.0419	999
156.0388	116
200.0736	157
