Mass spectrum: Salicylic acid; LC-ESI-QTOF; MS2; CE: 15;  [M-H]-
Name: Salicylic acid
Class: NA
Formula: C7H6O3
Exact mass: 138.0317
SMILES: C1=CC=C(C(=C1)C(=O)O)O
InChI: InChI=1S/C7H6O3/c8-6-4-2-1-3-5(6)7(9)10/h1-4,8H,(H,9,10)
Instrument: Bruker MicrOTOF-Q
Instrument type: LC-ESI-QTOF
Ms type: MS2
Ion mode: NEGATIVE
Ionization: ESI
Collision energy: 15
Column name: Acquity CSHC18
Retention time: NA
Base peak: 137.0244
Precursor m/z: 137.0244
Precursor type: [M-H]-
m/z	relative intensity
51.2579	2
54.3886	2
56.2479	2
59.0991	2
64.9646	2
66.8864	1
83.247	2
93.0337	999
93.3274	3
93.6598	1
94.036	57
95.036	2
137.0269	14
