Mass spectrum: N-Acetyl-L-glutamic acid; LC-ESI-QTOF; MS2; CE: -10, -35, -60V;  [M-H]-
Name: N-Acetyl-L-glutamic acid
Class: NA
Formula: C7H11NO5
Exact mass: 189.0637
SMILES: CC(=O)NC(CCC(=O)O)C(=O)O
InChI: InChI=1S/C7H11NO5/c1-4(9)8-5(7(12)13)2-3-6(10)11/h5H,2-3H2,1H3,(H,8,9)(H,10,11)(H,12,13)
Instrument: TripleToF 5600; Sciex
Instrument type: LC-ESI-QTOF
Ms type: MS2
Ion mode: NEGATIVE
Ionization: ESI
Collision energy: -10, -35, -60V
Column name: Acquity CSHC18
Retention time: 9.807 min
Base peak: 188.0565
Precursor m/z: 188.0565
Precursor type: [M-H]-
Precursor intensity: 345488.4
m/z	relative intensity
98.0624	4
100.0758	43
102.0568	201
126.0587	13
128.0332	241
129.0462	11
144.0665	161
146.0437	53
170.0367	307
170.044	308
171.0487	28
188.0563	999
