Mass spectrum: Glutathione; LC-ESI-QTOF; MS2; CE: 35.00;  [M+H]+
Name: Glutathione
Class: NA
Formula: C10H17N3O6S
Exact mass: 307.0838
SMILES: C(CC(=O)NC(CS)C(=O)NCC(=O)O)C(C(=O)O)N
InChI: InChI=1S/C10H17N3O6S/c11-5(10(18)19)1-2-7(14)13-6(4-20)9(17)12-3-8(15)16/h5-6,20H,1-4,11H2,(H,12,17)(H,13,14)(H,15,16)(H,18,19)
Instrument: Bruker MicrOTOF-Q
Instrument type: LC-ESI-QTOF
Ms type: MS2
Ion mode: POSITIVE
Ionization: ESI
Collision energy: 35.00
Column name: Acquity CSHC18
Retention time: NA
Base peak: 308.0901
Precursor m/z: 308.0901
Precursor type: [M+H]+
m/z	relative intensity
114.0344	36
116.0114	44
116.0153	175
124.0214	203
130.0479	80
141.0516	100
142.0317	999
143.0334	103
144.0083	106
162.0237	187
187.0523	136
187.0547	34
194.9101	48
209.8744	78
227.8853	45
263.9022	51
