Mass spectrum: (R)-Butaprost (free acid); ESI-TOF; MS2; CE: 6.0000000;  [M+H]+
Name: (R)-Butaprost (free acid)
Class: NA
Formula: C23H38O5
Exact mass: 394.27192
SMILES: CCCC1(CCC1)[C@H](O)C/C=C/[C@H]1C(O)CC(=O)C1CCCCCCC(=O)O
InChI: InChI=1S/C23H38O5/c1-2-13-23(14-8-15-23)21(26)11-7-10-18-17(19(24)16-20(18)25)9-5-3-4-6-12-22(27)28/h7,10,17-18,20-21,25-26H,2-6,8-9,11-16H2,1H3,(H,27,28)/b10-7+/t17?,18-,20?,21-/m1/s1
Instrument: waters xevo g2 TOF
Instrument type: ESI-TOF
Ms type: MS2
Ion mode: POSITIVE
Ionization: ESI
Collision energy: 6.0000000
Column name: Acquity CSHC18
Retention time: 4.217 min
Base peak: 395.27992
Precursor m/z: 395.27992
Precursor type: [M+H]+
m/z	relative intensity
67.0534	1
107.0867	3
135.1179	6
147.1164	12
149.1335	21
163.1479	3
187.1476	2
189.1451	4
205.1231	12
207.1388	3
215.1418	1
217.1225	8
219.137	17
231.1372	29
232.162	2
233.1545	17
235.1483	9
237.1479	6
243.1755	7
249.1689	3
271.2002	1
287.2398	6
299.2392	3
301.1787	2
315.2317	23
322.0857	8
323.2365	44
324.2411	6
333.245	16
334.2468	2
341.248	999
342.2509	252
343.2544	29
352.1	4
359.2584	804
360.2616	207
377.2677	205
378.2729	50
396.2433	67
396.7418	14
397.223	6
