Mass spectrum: Glycine; LC-ESI-ITFT; MS2; CE: 100;  [M+H]+
Name: Glycine
Class: Organic acids and derivatives; Carboxylic acids and derivatives; Amino acids, peptides, and analogues
Formula: C2H5NO2
Exact mass: 75.03203
SMILES: NCC(O)=O
InChI: InChI=1S/C2H5NO2/c3-1-2(4)5/h1,3H2,(H,4,5)
Instrument: Thermo Scientific Q-Exactive Focus
Instrument type: LC-ESI-ITFT
Ms type: MS2
Ion mode: POSITIVE
Ionization: ESI
Collision energy: 100
Column name: Acquity CSHC18
Retention time: 2.216 min
Base peak: 76.03930
Precursor m/z: 76.03930
Precursor type: [M+H]+
m/z	relative intensity
54.2676	763
70.791	841
73.1019	795
79.936	895
83.4135	813
83.5554	821
83.7152	781
85.6398	863
87.6705	780
91.6914	999
