Mass spectrum: CARNOSINE; LC-ESI-QTOF; MS2; CE: 20;  [M-H]-
Name: CARNOSINE
Class: NA
Formula: C9H14N4O3
Exact mass: 226.10659
SMILES: NCCC(=O)N[C@@H](CC1=CN=CN1)C(O)=O
InChI: InChI=1S/C9H14N4O3/c10-2-1-8(14)13-7(9(15)16)3-6-4-11-5-12-6/h4-5,7H,1-3,10H2,(H,11,12)(H,13,14)(H,15,16)/t7-/m0/s1
Instrument: Agilent 6530Â Q-TOF LC/MS
Instrument type: LC-ESI-QTOF
Ms type: MS2
Ion mode: NEGATIVE
Ionization: ESI
Collision energy: 20
Column name: NA
Retention time: 0.200 min
Base peak: 225.10277
Precursor m/z: 225.10277
Precursor type: [M-H]-
Precursor intensity: 177
m/z	relative intensity
41.9989	118
58.038	123
67.0316	137
80.0458	218
81.0545	268
93.0512	295
110.0942	324
137.0379	426
154.0818	999
