Mass spectrum: Niacinamide; LC-ESI-ITFT; MS2; CE: 40;  [M+H]+
Name: Niacinamide
Class: Organoheterocyclic compounds; Pyridines and derivatives; Pyridinecarboxylic acids and derivatives
Formula: C6H6N2O
Exact mass: 122.04801
SMILES: NC(=O)C1=CC=CN=C1
InChI: InChI=1S/C6H6N2O/c7-6(9)5-2-1-3-8-4-5/h1-4H,(H2,7,9)
Instrument: Thermo Scientific Q-Exactive Focus
Instrument type: LC-ESI-ITFT
Ms type: MS2
Ion mode: POSITIVE
Ionization: ESI
Collision energy: 40
Column name: Acquity CSHC18
Retention time: 1.033 min
Base peak: 123.05529
Precursor m/z: 123.05529
Precursor type: [M+H]+
m/z	relative intensity
50.0157	53
51.0235	269
52.0188	191
52.0314	58
53.0392	999
68.05	20
78.0343	209
79.0421	79
80.0499	934
96.0447	537
