Mass spectrum: hesperidin; LC-ESI-ITFT; MS2; CE: 0.3;  [M+H]+
Name: hesperidin
Class: flavanones
Formula: C28H34O15
Exact mass: 610.1898
SMILES: CC1C(C(C(C(O1)OCC2C(C(C(C(O2)OC3=CC(=C4C(=O)CC(OC4=C3)C5=CC(=C(C=C5)OC)O)O)O)O)O)O)O)O
InChI: InChI=1S/C28H34O15/c1-10-21(32)23(34)25(36)27(40-10)39-9-19-22(33)24(35)26(37)28(43-19)41-12-6-14(30)20-15(31)8-17(42-18(20)7-12)11-3-4-16(38-2)13(29)5-11/h3-7,10,17,19,21-30,32-37H,8-9H2,1-2H3
Instrument: LTQ-Orbitrap XL hybrid mass spectrometer (Thermo Scientific)
Instrument type: LC-ESI-ITFT
Ms type: MS2
Ion mode: POSITIVE
Ionization: ESI
Collision energy: 0.3
Column name: Acquity CSHC18
Retention time: 7.702 min
Base peak: 611.1987
Precursor m/z: 611.1987
Precursor type: [M+H]+
Precursor intensity: 14326430
m/z	relative intensity
176.6411	53
196.213	179
225.5348	43
287.3438	89
287.3531	229
287.3628	202
303.0872	439
335.8573	45
345.0978	289
351.5829	55
369.0982	77
399.1081	49
411.1089	76
413.1243	208
429.1187	67
431.1348	240
447.1296	831
449.1451	999
457.138	76
465.1401	741
473.1444	59
478.541	105
489.1401	272
491.1557	87
539.1554	55
557.1666	171
575.1778	321
593.1884	202
