Mass spectrum: Hesperitin-7-O-beta-rutinosid; LC-ESI-QTOF; MS2; CE: 50eV;  [M+Na]+
Name: Hesperitin-7-O-beta-rutinosid
Class: Flavanone
Formula: C28H34O15
Exact mass: 610.1898
SMILES: CC1C(C(C(C(O1)OCC2C(C(C(C(O2)OC3=CC(=C4C(=O)CC(OC4=C3)C5=CC(=C(C=C5)OC)O)O)O)O)O)O)O)O
InChI: InChI=1S/C28H34O15/c1-10-21(32)23(34)25(36)27(40-10)39-9-19-22(33)24(35)26(37)28(43-19)41-12-6-14(30)20-15(31)8-17(42-18(20)7-12)11-3-4-16(38-2)13(29)5-11/h3-7,10,17,19,21-30,32-37H,8-9H2,1-2H3
Instrument: TIMS-TOF Pro, Bruker Daltonik; Elute UHPLC System, Bruker Daltonik
Instrument type: LC-ESI-QTOF
Ms type: MS2
Ion mode: POSITIVE
Ionization: ESI
Collision energy: 50eV
Column name: Acquity CSHC18
Retention time: 5.594 min
Base peak: 633.1780
Precursor m/z: 633.1780
Precursor type: [M+Na]+
Precursor intensity: 7683.75
m/z	relative intensity
281.0637	66
331.0974	162
449.1338	80
465.1413	132
633.17	999
