Mass spectrum: Homovanillic acid; ESI-TOF; MS2; CE: 0.6458333;  [M+H]+
Name: Homovanillic acid
Class: NA
Formula: C9H10O4
Exact mass: 182.05791
SMILES: COC1=CC(CC(O)=O)=CC=C1O
InChI: InChI=1S/C9H10O4/c1-13-8-4-6(5-9(11)12)2-3-7(8)10/h2-4,10H,5H2,1H3,(H,11,12)
Instrument: waters xevo g2 TOF
Instrument type: ESI-TOF
Ms type: MS2
Ion mode: POSITIVE
Ionization: ESI
Collision energy: 0.6458333
Column name: Acquity CSHC18
Retention time: 2.054 min
Base peak: 183.06591
Precursor m/z: 183.06591
Precursor type: [M+H]+
m/z	relative intensity
59.05	1
65.0399	8
66.0478	27
67.0553	4
73.0293	4
77.0395	29
79.0551	29
81.0713	9
85.0654	6
91.0552	30
93.0337	10
94.0421	410
95.0465	31
97.0183	6
97.9695	14
99.994	5
106.0184	14
107.05	60
107.5117	3
108.0531	4
109.0473	6
114.0142	4
115.024	22
122.0373	500
123.0411	56
125.0245	3
126.0261	7
127.9803	1
135.0449	11
137.108	316
138.0641	59
139.066	9
142.5219	5
143.0545	3
145.0184	3
146.0425	2
147.0119	21
149.0241	12
150.0313	5
151.0765	4
151.7266	2
153.0558	41
155.0562	13
155.5286	2
156.0821	1
156.9934	3
160.9913	40
161.9863	17
163.0228	9
165.0427	2
166.0582	17
167.0522	3
168.0656	31
172.0889	2
173.0295	4
177.0033	83
177.9991	23
181.0198	1
182.0128	2
183.057	11
184.0868	7
185.0953	2
186.0324	2
187.075	18
187.5347	1
191.9878	6
192.995	129
194.9944	32
196.0519	30
197.0217	20
198.0675	12
199.0751	11
200.0684	17
201.0602	2
202.041	9
204.04	1
207.0445	6
208.0496	1
208.9903	44
210.058	8
211.0518	55
212.0802	20
213.055	28
214.0607	11
215.0462	2
219.0346	3
221.0129	84
222.0072	2
223.077	7
224.0832	10
225.0343	7
226.0477	17
227.07	43
228.0776	33
229.083	11
231.0621	1
234.0363	2
235.0538	10
236.0274	1
236.9854	17
237.9941	26
239.0704	102
240.0511	14
241.0773	13
241.9885	10
243.1016	25
244.0636	2
245.0819	4
249.9927	38
250.998	3
252.1015	20
253.0617	17
254.0909	14
255.03	46
256.073	57
257.0996	32
258.058	4
259.0987	8
263.0336	5
267.0314	118
268.0685	73
269.0634	54
270.0878	20
271.0968	999
272.1001	192
274.0613	3
280.0388	4
281.0455	26
283.0224	4
284.0681	26
285.0694	38
286.0332	1
287.0915	18
294.0823	2
295.0608	99
296.0618	19
297.1218	19
297.9946	27
299.045	53
300.0514	39
301.0712	34
303.0691	10
304.1425	1
310.029	6
311.0744	30
312.0618	6
313.0384	46
314.0213	45
315.0517	69
316.064	24
317.1021	125
318.084	16
319.1084	3
320.0366	3
325.07	4
326.0508	31
327.0647	33
328.065	60
329.0725	25
330.0554	56
331.0668	13
336.0736	4
339.0838	104
340.0889	39
341.0534	37
342.1029	2
344.0357	33
350.0087	11
351.0207	2
357.0791	16
358.0149	27
359.05	61
359.5807	4
360.0535	19
361.0611	3
362.0995	18
367.9963	3
369.094	5
371.0815	37
372.0718	22
373.0452	19
374.0474	99
375.0475	27
382.0819	22
382.5835	9
383.0746	20
384.0808	19
385.0895	262
386.0496	30
387.0922	25
388.0232	13
389.0842	55
390.084	19
391.1099	6
393.0881	1
399.0493	6
401.0879	35
402.06	14
403.0508	79
404.0363	19
405.0749	5
407.1865	1
408.0848	1
414.0403	20
415.1314	14
416.0683	21
417.0301	37
418.0345	173
419.0747	71
420.0408	27
421.0919	7
422.0405	1
426.092	3
433.1282	14
434.108	2
436.108	2
437.1119	17
438.12	3
449.1009	14
449.6022	4
451.13	11
452.114	8
453.0838	31
454.0875	6
455.0837	6
457.0783	1
459.0744	1
461.1226	7
462.1251	12
464.0955	9
467.1269	2
472.1021	10
479.1129	9
489.1176	3
493.1159	1
497.175	4
507.1274	11
508.0829	4
519.1248	32
520.1269	8
521.1401	12
523.1201	19
524.1217	7
525.1365	5
535.0921	8
540.1266	2
541.1286	2
549.1395	1
551.1502	20
552.115	2
554.0861	4
562.1257	1
563.1232	10
563.6334	1
565.1309	63
566.1338	19
568.1309	2
569.1264	8
581.0963	12
582.1004	3
595.1128	3
597.0782	6
598.0765	9
599.0816	4
602.126	4
613.1611	1
639.047	1
688.1316	1
690.1341	2
703.1512	5
732.1591	1
734.1234	3
735.1394	1
747.1827	5
748.1927	3
763.1535	22
764.1542	9
765.1484	3
774.1212	4
775.1187	2
778.1635	5
779.1679	7
780.1309	5
785.0538	1
836.0719	2
943.1885	5
944.1989	2
959.1608	2
1013.1063	2
1017.1107	2
1194.1455	2
