Mass spectrum: D-Pantethine; ESI-TOF; MS2; CE: 0.6458333;  [M+H]+
Name: D-Pantethine
Class: NA
Formula: C22H42N4O8S2
Exact mass: 554.24441
SMILES: CC(C)(CO)C(O)C(=O)NCCC(=O)NCCSSCCNC(=O)CCNC(=O)C(O)C(C)(C)CO
InChI: InChI=1S/C22H42N4O8S2/c1-21(2,13-27)17(31)19(33)25-7-5-15(29)23-9-11-35-36-12-10-24-16(30)6-8-26-20(34)18(32)22(3,4)14-28/h17-18,27-28,31-32H,5-14H2,1-4H3,(H,23,29)(H,24,30)(H,25,33)(H,26,34)
Instrument: waters xevo g2 TOF
Instrument type: ESI-TOF
Ms type: MS2
Ion mode: POSITIVE
Ionization: ESI
Collision energy: 0.6458333
Column name: Acquity CSHC18
Retention time: 2.211 min
Base peak: 555.25241
Precursor m/z: 555.25241
Precursor type: [M+H]+
m/z	relative intensity
111.0449	31
118.0326	24
130.0596	13
142.087	5
147.0621	287
148.0612	20
149.0742	10
155.0704	34
159.0597	7
173.0813	8
184.0976	20
195.0624	6
202.9932	4
207.0625	12
208.0621	9
224.0889	49
225.0845	3
236.0594	5
237.0709	8
249.078	17
259.0871	9
264.0865	8
266.0999	64
267.1029	5
268.0743	2
277.1204	11
278.0996	160
279.102	46
280.0963	29
288.0982	6
295.1262	999
296.1284	149
297.1172	70
298.1113	14
305.0998	26
314.0377	3
336.1402	3
349.0526	10
376.0326	37
378.031	3
389.1681	4
390.1519	7
407.178	130
408.18	24
409.1748	24
410.1806	3
425.189	271
426.1918	51
427.1867	59
429.182	2
447.168	7
449.1467	6
478.1004	29
519.2312	7
537.2414	168
538.2445	46
539.2412	15
540.2383	4
555.2518	11
556.2545	2
