Mass spectrum: CREATINE; LC-ESI-QTOF; MS2; CE: 40;  [M+H]+
Name: CREATINE
Class: NA
Formula: C4H9N3O2
Exact mass: 131.0695
SMILES: CN(CC(O)=O)C(N)=N
InChI: InChI=1S/C4H9N3O2/c1-7(4(5)6)2-3(8)9/h2H2,1H3,(H3,5,6)(H,8,9)
Instrument: Agilent 6530Â Q-TOF LC/MS
Instrument type: LC-ESI-QTOF
Ms type: MS2
Ion mode: POSITIVE
Ionization: ESI
Collision energy: 40
Column name: NA
Retention time: 0.200 min
Base peak: 132.07742
Precursor m/z: 132.07742
Precursor type: [M+H]+
Precursor intensity: 154.5
m/z	relative intensity
41.0244	53
43.029	709
44.0506	999
55.9335	96
62.9288	921
