Mass spectrum: 6-HYDROXYNICOTINATE; LC-ESI-QTOF; MS2; CE: 20;  [M+H]+
Name: 6-HYDROXYNICOTINATE
Class: NA
Formula: C6H5NO3
Exact mass: 139.02694
SMILES: OC(=O)C1=CN=C(O)C=C1
InChI: InChI=1S/C6H5NO3/c8-5-2-1-4(3-7-5)6(9)10/h1-3H,(H,7,8)(H,9,10)
Instrument: Agilent 6530Â Q-TOF LC/MS
Instrument type: LC-ESI-QTOF
Ms type: MS2
Ion mode: POSITIVE
Ionization: ESI
Collision energy: 20
Column name: NA
Retention time: 0.200 min
Base peak: 140.03681
Precursor m/z: 140.03681
Precursor type: [M+H]+
Precursor intensity: 179.5
m/z	relative intensity
41.0393	30
45.0079	32
50.0172	32
51.0439	36
52.0168	39
54.0366	40
54.9441	40
66.0543	41
67.0267	47
78.0677	49
80.0141	52
93.0419	52
94.0535	101
95.0315	122
96.0482	144
104.0141	328
122.06	451
122.2088	512
122.4624	548
123.018	548
140.0663	999
