Mass spectrum: [3-[[(E)-3-(4-Hydroxy-3-methoxyphenyl)acryloyl]oxy]-2-hydroxypropyl]alpha-D-glucopyranosiduronic acid; LC-ESI-QTOF; MS2; CE: 20-40eV;  [M+H]+
Name: [3-[[(E)-3-(4-Hydroxy-3-methoxyphenyl)acryloyl]oxy]-2-hydroxypropyl]alpha-D-glucopyranosiduronic acid
Class: Hydroxycinnamic acids and derivatives
Formula: C19H24O12
Exact mass: 444.1268
SMILES: COC=1C=C(C=CC1O)C(=C(C(=O)OCC(COC2(C(C(C(C(C(=O)O)(O2)[H])(O)[H])(O)[H])(O)[H])[H])(O)[H])[H])[H]
InChI: InChI=1S/C19H24O12/c1-28-12-6-9(2-4-11(12)21)3-5-13(22)29-7-10(20)8-30-19-16(25)14(23)15(24)17(31-19)18(26)27/h2-6,10,14-17,19-21,23-25H,7-8H2,1H3,(H,26,27)
Instrument: Impact II, Bruker; Dionex 3000, Thermo Scientific
Instrument type: LC-ESI-QTOF
Ms type: MS2
Ion mode: POSITIVE
Ionization: ESI
Collision energy: 20-40eV
Column name: Acquity CSHC18
Retention time: 4.202 min
Base peak: 445.1344
Precursor m/z: 445.1344
Precursor type: [M+H]+
Precursor intensity: 73231.13
m/z	relative intensity
117.0515	11
131.021	91
177.0544	999
