Mass spectrum: L-Homoserine lactone; LC-ESI-ITFT; MS2; CE: 20;  [M+H]+
Name: L-Homoserine lactone
Class: NA
Formula: C4H7NO2
Exact mass: 101.04768
SMILES: C1COC(=O)[C@H]1N
InChI: InChI=1S/C4H7NO2/c5-3-1-2-7-4(3)6/h3H,1-2,5H2/t3-/m0/s1
Instrument: Thermo Scientific Q-Exactive Focus
Instrument type: LC-ESI-ITFT
Ms type: MS2
Ion mode: POSITIVE
Ionization: ESI
Collision energy: 20
Column name: Acquity CSHC18
Retention time: 0.379 min
Base peak: 102.05496
Precursor m/z: 102.05496
Precursor type: [M+H]+
m/z	relative intensity
56.05	672
58.0656	30
65.4707	11
74.0241	999
74.0605	184
84.0447	155
85.0287	43
97.7736	12
102.0552	68
104.7231	12
