Mass spectrum: Picolinic acid; LC-ESI-ITFT; MS2; CE: 40;  [M-H]-
Name: Picolinic acid
Class: Organoheterocyclic compounds; Pyridines and derivatives; Pyridinecarboxylic acids and derivatives
Formula: C6H5NO2
Exact mass: 123.03203
SMILES: OC(=O)C1=CC=CC=N1
InChI: InChI=1S/C6H5NO2/c8-6(9)5-3-1-2-4-7-5/h1-4H,(H,8,9)
Instrument: Thermo Scientific Q-Exactive Focus
Instrument type: LC-ESI-ITFT
Ms type: MS2
Ion mode: NEGATIVE
Ionization: ESI
Collision energy: 40
Column name: Acquity CSHC18
Retention time: 1.475 min
Base peak: 122.02475
Precursor m/z: 122.02475
Precursor type: [M-H]-
m/z	relative intensity
56.5404	25
57.9745	257
61.9872	999
76.9269	23
77.3011	23
81.4224	23
91.7007	25
99.3348	23
112.5625	23
120.5613	23
