Mass spectrum: CTP; LC-ESI-QTOF; MS2; CE: 60;  [M+H]+
Name: CTP
Class: Pentose phosphates
Formula: C9H16N3O14P3
Exact mass: 482.98451
SMILES: NC1=NC(=O)N(C=C1)[C@@H]1O[C@H](COP(O)(=O)OP(O)(=O)OP(O)(O)=O)[C@@H](O)[C@H]1O
InChI: InChI=1S/C9H16N3O14P3/c10-5-1-2-12(9(15)11-5)8-7(14)6(13)4(24-8)3-23-28(19,20)26-29(21,22)25-27(16,17)18/h1-2,4,6-8,13-14H,3H2,(H,19,20)(H,21,22)(H2,10,11,15)(H2,16,17,18)/t4-,6-,7-,8-/m1/s1
Instrument: impact II
Instrument type: LC-ESI-QTOF
Ms type: MS2
Ion mode: POSITIVE
Ionization: ESI
Collision energy: 60
Column name: Acquity CSHC18
Retention time: 1.792 min
Base peak: 483.99190
Precursor m/z: 483.99190
Precursor type: [M+H]+
m/z	relative intensity
45.0342	8
55.0548	1
57.0709	1
69.0341	8
69.0452	4
94.04	23
95.0239	83
95.036	1
96.0275	4
97.0285	92
97.0389	2
98.0321	6
98.9843	9
102.0908	1
112.0305	1
112.0504	999
112.0635	80
112.0756	2
112.0892	1
112.0976	3
112.1182	7
112.1276	7
112.1353	12
112.1512	4
112.1869	2
112.1948	3
112.2345	2
112.243	1
112.3595	1
112.3843	1
113.0536	62
114.0569	1
166.0609	2
178.95	10
196.9619	1
