Mass spectrum: Retinol; LC-ESI-QTOF; MS2; CE: 100;  [M+H]+
Name: Retinol
Class: NA
Formula: C20H30O
Exact mass: 286.22967
SMILES: CC1=C(C(CCC1)(C)C)C=CC(=CC=CC(=CCO)C)C
InChI: InChI=1S/C20H30O/c1-16(8-6-9-17(2)13-15-21)11-12-19-18(3)10-7-14-20(19,4)5/h6,8-9,11-13,21H,7,10,14-15H2,1-5H3
Instrument: impact II
Instrument type: LC-ESI-QTOF
Ms type: MS2
Ion mode: POSITIVE
Ionization: ESI
Collision energy: 100
Column name: Acquity CSHC18
Retention time: 1.913 min
Base peak: 287.23770
Precursor m/z: 287.23770
Precursor type: [M+H]+
m/z	relative intensity
51.023	333
53.0389	283
55.0546	187
65.0389	282
77.0388	188
79.0539	123
91.0541	503
103.054	122
105.0447	217
115.0541	999
127.0547	125
128.0616	881
129.0682	205
141.0698	637
152.0616	238
153.0695	202
155.0605	192
165.07	122
