Mass spectrum: Nerol; LC-ESI-QTOF; MS2; CE: 15.00;  [M-H2O+H]+
Name: Nerol
Class: NA
Formula: C10H18O
Exact mass: 154.1358
SMILES: CC(=CCCC(=CCO)C)C
InChI: InChI=1S/C10H18O/c1-9(2)5-4-6-10(3)7-8-11/h5,7,11H,4,6,8H2,1-3H3
Instrument: Bruker MicrOTOF-Q
Instrument type: LC-ESI-QTOF
Ms type: MS2
Ion mode: POSITIVE
Ionization: ESI
Collision energy: 15.00
Column name: Acquity CSHC18
Retention time: NA
Base peak: 137.1325
Precursor m/z: 137.1325
Precursor type: [M-H2O+H]+
m/z	relative intensity
135.1183	67
137.1307	999
138.1285	60
