Mass spectrum: Methyl heptadecanoate; LC-ESI-ITFT; MS2; CE: 10;  [M+H]+
Name: Methyl heptadecanoate
Class: NA
Formula: C18H36O2
Exact mass: 284.27153
SMILES: CCCCCCCCCCCCCCCCC(=O)OC
InChI: InChI=1S/C18H36O2/c1-3-4-5-6-7-8-9-10-11-12-13-14-15-16-17-18(19)20-2/h3-17H2,1-2H3
Instrument: Thermo Scientific Q-Exactive Focus
Instrument type: LC-ESI-ITFT
Ms type: MS2
Ion mode: POSITIVE
Ionization: ESI
Collision energy: 10
Column name: Acquity CSHC18
Retention time: 0.348 min
Base peak: 285.27881
Precursor m/z: 285.27881
Precursor type: [M+H]+
m/z	relative intensity
57.0705	90
59.061	92
71.086	80
244.052	96
285.1096	137
285.1308	69
285.1701	132
285.2422	73
285.2786	999
285.3342	161
