Mass spectrum: 5-Hydroxyindole-2-carboxylic acid; LC-ESI-QTOF; MS2; CE: 15.00;  [M+H]+
Name: 5-Hydroxyindole-2-carboxylic acid
Class: NA
Formula: C9H7NO3
Exact mass: 177.0426
SMILES: C1=CC2=C(C=C1O)C=C(N2)C(=O)O
InChI: InChI=1S/C9H7NO3/c11-6-1-2-7-5(3-6)4-8(10-7)9(12)13/h1-4,10-11H,(H,12,13)
Instrument: Bruker MicrOTOF-Q
Instrument type: LC-ESI-QTOF
Ms type: MS2
Ion mode: POSITIVE
Ionization: ESI
Collision energy: 15.00
Column name: Acquity CSHC18
Retention time: NA
Base peak: 178.0499
Precursor m/z: 178.0499
Precursor type: [M+H]+
m/z	relative intensity
116.0477	22
132.0429	527
133.0465	57
134.0585	89
147.0306	11
159.0308	64
160.0386	999
161.0421	106
178.0497	19
