Mass spectrum: 3-HYDROXYMETHYLGLUTARATE; LC-ESI-QFT; MS2; CE: 30eV;  [M+H]+
Name: 3-HYDROXYMETHYLGLUTARATE
Class: NA
Formula: C6H10O5
Exact mass: 162.05282
SMILES: CC(O)(CC(O)=O)CC(O)=O
InChI: InChI=1S/C6H10O5/c1-6(11,2-4(7)8)3-5(9)10/h11H,2-3H2,1H3,(H,7,8)(H,9,10)
Instrument: Q-Exactive Orbitrap, Thermo Scientfic; Ultimate 3000 HPLC, Thermo Scientfic
Instrument type: LC-ESI-QFT
Ms type: MS2
Ion mode: POSITIVE
Ionization: ESI
Collision energy: 30eV
Column name: Acquity CSHC18
Retention time: 0.986 min
Base peak: 163.0601
Precursor m/z: 163.0601
Precursor type: [M+H]+
Precursor intensity: 140
m/z	relative intensity
50.8743	8
52.3271	8
55.0552	10
56.1489	8
57.3054	8
63.4848	10
67.1725	10
69.0797	9
76.9564	9
81.0342	11
85.0291	254
87.4088	10
89.0603	11
90.009	10
99.0446	322
103.0101	9
103.0396	999
104.0429	11
107.241	10
109.029	24
121.0652	10
127.0394	587
128.0429	16
143.9185	12
145.0499	13
163.0392	41
163.0757	40
175.5014	11
