Mass spectrum: Guanosine monophosphate; LC-ESI-ITFT; MS2; CE: 10;  [M-H]-
Name: Guanosine monophosphate
Class: Nucleosides, nucleotides, and analogues; Purine nucleotides; Purine ribonucleotides
Formula: C10H14N5O8P
Exact mass: 363.05800
SMILES: NC1=NC2=C(N=CN2[C@@H]2O[C@H](COP(O)(O)=O)[C@@H](O)[C@H]2O)C(=O)N1
InChI: InChI=1S/C10H14N5O8P/c11-10-13-7-4(8(18)14-10)12-2-15(7)9-6(17)5(16)3(23-9)1-22-24(19,20)21/h2-3,5-6,9,16-17H,1H2,(H2,19,20,21)(H3,11,13,14,18)/t3-,5-,6-,9-/m1/s1
Instrument: Thermo Scientific Q-Exactive Focus
Instrument type: LC-ESI-ITFT
Ms type: MS2
Ion mode: NEGATIVE
Ionization: ESI
Collision energy: 10
Column name: Acquity CSHC18
Retention time: 0.360 min
Base peak: 362.05072
Precursor m/z: 362.05072
Precursor type: [M-H]-
m/z	relative intensity
78.9578	177
96.9683	3
211.0006	51
362.0404	72
362.0506	999
