Mass spectrum: AMINOISOBUTANOATE; LC-ESI-QFT; MS2; CE: 30eV;  [M+H]+
Name: AMINOISOBUTANOATE
Class: NA
Formula: C4H9NO2
Exact mass: 103.06333
SMILES: CC(CN)C(O)=O
InChI: InChI=1S/C4H9NO2/c1-3(2-5)4(6)7/h3H,2,5H2,1H3,(H,6,7)
Instrument: Q-Exactive Orbitrap, Thermo Scientfic; Ultimate 3000 HPLC, Thermo Scientfic
Instrument type: LC-ESI-QFT
Ms type: MS2
Ion mode: POSITIVE
Ionization: ESI
Collision energy: 30eV
Column name: Acquity CSHC18
Retention time: 0.349 min
Base peak: 104.0706
Precursor m/z: 104.0706
Precursor type: [M+H]+
Precursor intensity: 131
m/z	relative intensity
55.1077	10
56.0503	12
57.0457	9
57.0707	14
58.0659	561
58.0741	49
59.0499	63
59.0612	154
59.0693	91
60.0452	288
60.0816	169
60.8684	9
61.0406	19
61.0423	51
61.0485	189
61.0849	146
62.0245	19
62.0495	48
62.0608	48
62.9298	124
63.3002	10
68.3757	9
69.0343	92
69.0706	315
69.9729	10
71.0737	15
72.0815	112
73.0831	9
74.0608	18
75.0641	14
75.1005	63
76.9388	12
77.2203	17
79.3577	10
84.0815	27
85.0849	183
86.0607	378
86.0688	24
86.0881	16
86.0971	971
87.0448	16
87.1004	15
87.1049	26
103.084	11
103.0872	57
103.0953	313
103.0984	20
103.1258	24
103.1316	999
104.0713	20
104.0961	40
104.1075	321
104.1107	20
104.135	64
