Mass spectrum: NICOTINE; LC-ESI-QTOF; MS2; CE: 10;  [M+H]+
Name: NICOTINE
Class: NA
Formula: C10H14N2
Exact mass: 162.11570
SMILES: [H][C@]1(CCCN1C)C1=CC=CN=C1
InChI: InChI=1S/C10H14N2/c1-12-7-3-5-10(12)9-4-2-6-11-8-9/h2,4,6,8,10H,3,5,7H2,1H3/t10-/m0/s1
Instrument: Agilent 6530Â Q-TOF LC/MS
Instrument type: LC-ESI-QTOF
Ms type: MS2
Ion mode: POSITIVE
Ionization: ESI
Collision energy: 10
Column name: NA
Retention time: 0.200 min
Base peak: 163.12480
Precursor m/z: 163.12480
Precursor type: [M+H]+
Precursor intensity: 43.5
m/z	relative intensity
42.0419	19
44.0649	19
45.0423	19
53.0404	20
55.0521	20
65.0401	20
70.0699	20
77.0452	21
78.0394	21
80.1043	22
80.4036	22
81.0473	23
82.0773	23
84.1489	23
84.3645	23
84.5067	24
84.5858	24
84.7334	25
84.8205	25
85.0793	25
89.0523	25
90.0584	26
91.0537	30
92.0599	33
93.0496	38
94.078	41
96.0841	45
103.0629	46
106.1016	48
106.2895	50
107.072	50
115.0737	53
117.0928	54
117.5149	57
117.6516	60
118.0685	62
120.1105	63
120.5065	76
130.2656	83
130.6175	121
130.7632	141
130.8681	170
131.0737	438
131.3472	500
131.5246	525
132.2702	669
132.5882	740
132.7314	814
133.0557	979
134.1037	999
163.5002	19
164.0281	19
164.3098	19
