Mass spectrum: AZELATE; LC-ESI-QTOF; MS2; CE: 40;  [M-H]-
Name: AZELATE
Class: NA
Formula: C9H16O4
Exact mass: 188.10486
SMILES: OC(=O)CCCCCCCC(O)=O
InChI: InChI=1S/C9H16O4/c10-8(11)6-4-2-1-3-5-7-9(12)13/h1-7H2,(H,10,11)(H,12,13)
Instrument: Agilent 6530Â Q-TOF LC/MS
Instrument type: LC-ESI-QTOF
Ms type: MS2
Ion mode: NEGATIVE
Ionization: ESI
Collision energy: 40
Column name: NA
Retention time: 0.200 min
Base peak: 187.09539
Precursor m/z: 187.09539
Precursor type: [M-H]-
Precursor intensity: 168
m/z	relative intensity
41.0052	538
97.0723	846
102.9411	996
123.0745	999
