Mass spectrum: abscissic acid; LC-ESI-ITFT; MS2; CE: 45eV;  [M+H]+
Name: abscissic acid
Class: isoprenoid
Formula: C15H20O4
Exact mass: 264.1362
SMILES: CC1=CC(=O)CC(C1(C=CC(=CC(=O)O)C)O)(C)C
InChI: InChI=1S/C15H20O4/c1-10(7-13(17)18)5-6-15(19)11(2)8-12(16)9-14(15,3)4/h5-8,19H,9H2,1-4H3,(H,17,18)
Instrument: LTQ Orbitrap XL, Thermo Scientfic; Dionex Ultimate 300
Instrument type: LC-ESI-ITFT
Ms type: MS2
Ion mode: POSITIVE
Ionization: ESI
Collision energy: 45eV
Column name: Alltima C18
Retention time: 14.26 min
Base peak: 265.1434
Precursor m/z: 265.1434
Precursor type: [M+H]+
m/z	relative intensity
106.8326	41
128.9322	41
146.9093	87
159.0329	213
173.087	367
187.1633	999
195.1797	20
201.1743	861
226.8171	12
236.9259	133
