Mass spectrum: (+-)-Abscisic acid; LC-ESI-QTOF; MS2; CE: 0.00;  [M+H]+
Name: (+-)-Abscisic acid
Class: NA
Formula: C15H20O4
Exact mass: 264.1362
SMILES: CC1=CC(=O)CC(C1(C=CC(=CC(=O)O)C)O)(C)C
InChI: InChI=1S/C15H20O4/c1-10(7-13(17)18)5-6-15(19)11(2)8-12(16)9-14(15,3)4/h5-8,19H,9H2,1-4H3,(H,17,18)
Instrument: Bruker MicrOTOF-Q
Instrument type: LC-ESI-QTOF
Ms type: MS2
Ion mode: POSITIVE
Ionization: ESI
Collision energy: 0.00
Column name: Acquity CSHC18
Retention time: NA
Base peak: 265.1434
Precursor m/z: 265.1434
Precursor type: [M+H]+
m/z	relative intensity
109.0442	367
172.939	949
173.5779	999
