Mass spectrum: FUMARATE; LC-ESI-QTOF; MS2; CE: 10;  [M-H]-
Name: FUMARATE
Class: NA
Formula: C4H4O4
Exact mass: 116.01096
SMILES: OC(=O)\C=C\C(O)=O
InChI: InChI=1S/C4H4O4/c5-3(6)1-2-4(7)8/h1-2H,(H,5,6)(H,7,8)/b2-1+
Instrument: Agilent 6530Â Q-TOF LC/MS
Instrument type: LC-ESI-QTOF
Ms type: MS2
Ion mode: NEGATIVE
Ionization: ESI
Collision energy: 10
Column name: NA
Retention time: 0.200 min
Base peak: 115.00194
Precursor m/z: 115.00194
Precursor type: [M-H]-
Precursor intensity: 102
m/z	relative intensity
71.0328	363
114.9861	999
