Mass spectrum: 16:0(2R-OH) Ceramide; ESI-TOF; MS2; CE: 0.6458333;  [M+H]+
Name: 16:0(2R-OH) Ceramide
Class: NA
Formula: C34H67NO4
Exact mass: 553.50701
SMILES: [H]OC([H])([H])C([H])(N([H])C(=O)C([H])(O[H])C([H])([H])C([H])([H])C([H])([H])C([H])([H])C([H])([H])C([H])([H])C([H])([H])C([H])([H])C([H])([H])C([H])([H])C([H])([H])C([H])([H])C([H])([H])C([H])([H])[H])C([H])(O[H])C([H])=C([H])C([H])([H])C([H])([H])C([H])([H])C([H])([H])C([H])([H])C([H])([H])C([H])([H])C([H])([H])C([H])([H])C([H])([H])C([H])([H])C([H])([H])C([H])([H])[H]
InChI: InChI=1S/C34H67NO4/c1-3-5-7-9-11-13-15-17-19-20-22-24-26-28-32(37)31(30-36)35-34(39)33(38)29-27-25-23-21-18-16-14-12-10-8-6-4-2/h26,28,31-33,36-38H,3-25,27,29-30H2,1-2H3,(H,35,39)
Instrument: waters xevo g2 TOF
Instrument type: ESI-TOF
Ms type: MS2
Ion mode: POSITIVE
Ionization: ESI
Collision energy: 0.6458333
Column name: Acquity CSHC18
Retention time: 10.613 min
Base peak: 554.51501
Precursor m/z: 554.51501
Precursor type: [M+H]+
m/z	relative intensity
252.2695	51
253.2727	17
265.2732	95
272.2584	9
272.7262	12
282.2798	47
336.2213	30
506.4939	35
507.493	12
518.4937	81
519.4953	27
536.5042	112
537.507	41
538.5106	5
554.5132	5
573.4881	47
573.9912	33
576.4956	999
577.4995	215
578.5027	83
612.3821	16
638.4669	22
639.4704	15
850.2402	108
850.743	125
851.2416	76
851.7456	32
1126.9918	16
1127.4932	24
1127.996	18
1128.5004	9
1130.0002	157
1131.0044	123
1132.0072	49
1133.0064	11
1191.9638	23
1192.9712	15
