Mass spectrum: BETA-GLYCEROPHOSPHATE; LC-ESI-QTOF; MS2; CE: 10;  [M-H]-
Name: BETA-GLYCEROPHOSPHATE
Class: NA
Formula: C3H9O6P
Exact mass: 172.01367
SMILES: OCC(CO)OP(O)(O)=O
InChI: InChI=1S/C3H9O6P/c4-1-3(2-5)9-10(6,7)8/h3-5H,1-2H2,(H2,6,7,8)
Instrument: Agilent 6530Â Q-TOF LC/MS
Instrument type: LC-ESI-QTOF
Ms type: MS2
Ion mode: NEGATIVE
Ionization: ESI
Collision energy: 10
Column name: NA
Retention time: 0.200 min
Base peak: 171.00880
Precursor m/z: 171.00880
Precursor type: [M-H]-
Precursor intensity: 148
m/z	relative intensity
78.9807	226
171.0076	999
