Mass spectrum: Ginkgolide C; LC-ESI-QFT; MS2; CE: 15,30,45 (NCE);  [M+Cl]-
Name: Ginkgolide C
Class: NA
Formula: C20H24O11
Exact mass: 440.1319
SMILES: CC1C(=O)OC2C(O)C34C5OC(=O)C3(OC3OC(=O)C(O)C43C(C5O)C(C)(C)C)C12O
InChI: InChI=1S/C20H24O11/c1-5-12(24)28-11-8(22)18-10-6(21)7(16(2,3)4)17(18)9(23)13(25)30-15(17)31-20(18,14(26)29-10)19(5,11)27/h5-11,15,21-23,27H,1-4H3
Instrument: QE Focus, Thermo Scientfic; UPLC I-Class, Waters
Instrument type: LC-ESI-QFT
Ms type: MS2
Ion mode: NEGATIVE
Ionization: ESI
Collision energy: 15,30,45 (NCE)
Column name: Acquity CSHC18
Retention time: 1.554 min
Base peak: 475.1016
Precursor m/z: 475.1016
Precursor type: [M+Cl]-
Precursor intensity: 2120730
m/z	relative intensity
62.249	129
113.0231	999
365.1239	193
