Mass spectrum: CIS-4-HYDROXY-D-PROLINE; LC-ESI-QFT; MS2; CE: 30eV;  [M+H]+
Name: CIS-4-HYDROXY-D-PROLINE
Class: NA
Formula: C5H9NO3
Exact mass: 131.05824
SMILES: O[C@H]1CN[C@H](C1)C(O)=O
InChI: InChI=1S/C5H9NO3/c7-3-1-4(5(8)9)6-2-3/h3-4,6-7H,1-2H2,(H,8,9)/t3-,4-/m1/s1
Instrument: Q-Exactive Orbitrap, Thermo Scientfic; Ultimate 3000 HPLC, Thermo Scientfic
Instrument type: LC-ESI-QFT
Ms type: MS2
Ion mode: POSITIVE
Ionization: ESI
Collision energy: 30eV
Column name: Acquity CSHC18
Retention time: 0.601 min
Base peak: 132.0655
Precursor m/z: 132.0655
Precursor type: [M+H]+
Precursor intensity: 156
m/z	relative intensity
50.4248	2
58.066	30
62.5872	2
67.1149	2
68.0503	399
69.0537	4
70.0659	2
72.938	32
74.0608	20
75.7193	2
79.5649	2
87.0581	2
87.0642	99
89.9406	15
90.904	53
90.941	4
90.9485	13
95.8974	2
107.3089	2
107.9513	3
108.9145	4
113.9644	14
114.0556	21
126.9617	3
131.1265	5
131.9303	4
131.9749	5
132.0661	999
132.9589	3
133.0433	3
133.0694	39
148.9776	3
149.9411	4
151.7788	3
