Mass spectrum: N-Methylnicotinamide; ESI-TOF; MS2; CE: 6.0000000;  [M+H]+
Name: N-Methylnicotinamide
Class: NA
Formula: C7H8N2O
Exact mass: 136.06366
SMILES: CNC(=O)C1=CN=CC=C1
InChI: InChI=1S/C7H8N2O/c1-8-7(10)6-3-2-4-9-5-6/h2-5H,1H3,(H,8,10)
Instrument: waters xevo g2 TOF
Instrument type: ESI-TOF
Ms type: MS2
Ion mode: POSITIVE
Ionization: ESI
Collision energy: 6.0000000
Column name: Acquity CSHC18
Retention time: 0.501 min
Base peak: 137.07166
Precursor m/z: 137.07166
Precursor type: [M+H]+
m/z	relative intensity
92.0504	6
94.0661	18
102.0588	5
106.0295	2
108.0452	5
110.0607	7
114.9716	6
119.0612	2
122.0609	7
123.0572	1
125.9867	2
137.7615	999
