Mass spectrum: 7-Methylthioheptyl glucosinolate; LC-ESI-ITFT; MS2; CE: 30;  [M+H]+
Name: 7-Methylthioheptyl glucosinolate
Class: NA
Formula: C15H29NO9S3
Exact mass: 463.1004
SMILES: CSCCCCCCCC(=NOS(=O)(=O)O)SC1C(C(C(C(O1)CO)O)O)O
InChI: InChI=1S/C15H29NO9S3/c1-26-8-6-4-2-3-5-7-11(16-25-28(21,22)23)27-15-14(20)13(19)12(18)10(9-17)24-15/h10,12-15,17-20H,2-9H2,1H3,(H,21,22,23)
Instrument: q exactive focus thermo
Instrument type: LC-ESI-ITFT
Ms type: MS2
Ion mode: POSITIVE
Ionization: ESI
Collision energy: 30
Column name: Acquity CSHC18
Retention time: 7.584 min
Base peak: 464.1078
Precursor m/z: 464.1078
Precursor type: [M+H]+
Precursor intensity: 660398.6
m/z	relative intensity
102.9596	13
103.042	15
104.0562	19
105.0574	23
106.0697	26
107.0698	28
109.0833	38
111.9766	40
112.9613	43
114.9568	44
117.0539	44
118.0647	45
120.0683	48
122.0647	54
125.0456	60
128.0563	64
129.0629	75
130.0572	79
131.0679	84
133.0937	97
134.0785	99
135.0624	103
142.9526	111
143.0691	116
144.0688	119
147.9913	120
149.042	123
151.0444	131
152.0542	132
153.0721	133
156.073	146
157.0755	168
160.0633	175
163.0757	188
171.1264	188
173.1073	230
174.0794	292
176.0925	318
177.0863	325
184.0633	395
187.0937	404
188.0924	420
191.0887	426
205.1034	430
219.072	501
234.0498	541
239.0808	614
372.0626	803
384.1422	999
