Mass spectrum: 8-(methylsulfinyl)octyl-glucosinolate; LC-ESI-QTOF; MS2; CE: 50eV;  [M-H]-
Name: 8-(methylsulfinyl)octyl-glucosinolate
Class: aliphatic glucosinolate
Formula: C16H31NO10S3
Exact mass: 493.1110
SMILES: O[C@H]1[C@@H](O)[C@@H](O)[C@H](S/C(CCCCCCCCS(C)=O)=N/OS(=O)(O)=O)O[C@@H]1CO
InChI: InChI=1S/C16H31NO10S3/c1-29(22)9-7-5-3-2-4-6-8-12(17-27-30(23,24)25)28-16-15(21)14(20)13(19)11(10-18)26-16/h11,13-16,18-21H,2-10H2,1H3,(H,23,24,25)/b17-12+/t11-,13-,14-,15-,16+,29?/m1/s1
Instrument: TIMS-TOF Pro, Bruker Daltonik; Elute UHPLC System, Bruker Daltonik
Instrument type: LC-ESI-QTOF
Ms type: MS2
Ion mode: NEGATIVE
Ionization: ESI
Collision energy: 50eV
Column name: Acquity CSHC18
Retention time: 5.642 min
Base peak: 492.0960
Precursor m/z: 492.0960
Precursor type: [M-H]-
Precursor intensity: 4607.78
m/z	relative intensity
59.0127	19
74.9879	62
79.9542	22
89.0221	29
96.9572	743
97.9471	15
428.0983	131
429.1037	16
477.0743	16
491.9036	20
492.0925	999
