Mass spectrum: L-Histidinol; LC-ESI-ITFT; MS2; CE: 30;  [M+H]+
Name: L-Histidinol
Class: Organic nitrogen compounds; Organonitrogen compounds; Amines
Formula: C6H11N3O
Exact mass: 141.09021
SMILES: N[C@H](CO)CC1=CN=CN1
InChI: InChI=1S/C6H11N3O/c7-5(3-10)1-6-2-8-4-9-6/h2,4-5,10H,1,3,7H2,(H,8,9)/t5-/m0/s1
Instrument: Thermo Scientific Q-Exactive Focus
Instrument type: LC-ESI-ITFT
Ms type: MS2
Ion mode: POSITIVE
Ionization: ESI
Collision energy: 30
Column name: Acquity CSHC18
Retention time: 0.915 min
Base peak: 142.09749
Precursor m/z: 142.09749
Precursor type: [M+H]+
m/z	relative intensity
54.0344	160
56.05	15
60.0449	90
68.0499	62
80.0499	29
81.0451	999
82.0529	66
83.0607	90
95.0606	205
107.0606	11
