Mass spectrum: Delphinidin 3-glucoside; LC-ESI-QTOF; MS2; CE: 50eV;  [M]+
Name: Delphinidin 3-glucoside
Class: Anthocyanin
Formula: [C21H21O12]+
Exact mass: 465.1028
SMILES: C1=C(C=C(C(=C1O)O)O)C2=[O+]C3=CC(=CC(=C3C=C2OC4C(C(C(C(O4)CO)O)O)O)O)O
InChI: InChI=1S/C21H20O12/c22-6-15-17(28)18(29)19(30)21(33-15)32-14-5-9-10(24)3-8(23)4-13(9)31-20(14)7-1-11(25)16(27)12(26)2-7/h1-5,15,17-19,21-22,28-30H,6H2,(H4-,23,24,25,26,27)/p+1
Instrument: TIMS-TOF Pro, Bruker Daltonik; Elute UHPLC System, Bruker Daltonik
Instrument type: LC-ESI-QTOF
Ms type: MS2
Ion mode: POSITIVE
Ionization: ESI
Collision energy: 50eV
Column name: Acquity CSHC18
Retention time: 3.572 min
Base peak: 465.0991
Precursor m/z: 465.0991
Precursor type: [M]+
Precursor intensity: 3080.94
m/z	relative intensity
195.0447	111
280.3076	80
285.0371	999
303.0428	80
