Mass spectrum: Glucosyl-ferulate; LC-ESI-QTOF; MS2; CE: 20-40eV;  [M+H]+
Name: Glucosyl-ferulate
Class: Hydroxycinnamic acids and derivatives
Formula: C16H20O9
Exact mass: 356.1107
SMILES: COC=1C=C(C=CC1O)C(=C(C(=O)OC2(C(C(C(C(CO)(O2)[H])(O)[H])(O)[H])(O)[H])[H])[H])[H]
InChI: InChI=1S/C16H20O9/c1-23-10-6-8(2-4-9(10)18)3-5-12(19)25-16-15(22)14(21)13(20)11(7-17)24-16/h2-6,11,13-18,20-22H,7H2,1H3
Instrument: Impact II, Bruker; Dionex 3000, Thermo Scientific
Instrument type: LC-ESI-QTOF
Ms type: MS2
Ion mode: POSITIVE
Ionization: ESI
Collision energy: 20-40eV
Column name: Acquity CSHC18
Retention time: 3.753 min
Base peak: 357.1181
Precursor m/z: 357.1181
Precursor type: [M+H]+
Precursor intensity: 88483.5
m/z	relative intensity
95.0669	12
177.0842	999
