Mass spectrum: Riboflavin 5'-phosphate; LC-ESI-QTOF; MS2; CE: 35.00;  [M-HO3P+H]+
Name: Riboflavin 5'-phosphate
Class: NA
Formula: C17H21N4O9P
Exact mass: 456.1046
SMILES: CC1=CC2=C(C=C1C)N(C3=NC(=O)NC(=O)C3=N2)CC(C(C(COP(=O)(O)O)O)O)O
InChI: InChI=1S/C17H21N4O9P/c1-7-3-9-10(4-8(7)2)21(15-13(18-9)16(25)20-17(26)19-15)5-11(22)14(24)12(23)6-30-31(27,28)29/h3-4,11-12,14,22-24H,5-6H2,1-2H3,(H,20,25,26)(H2,27,28,29)
Instrument: Bruker MicrOTOF-Q
Instrument type: LC-ESI-QTOF
Ms type: MS2
Ion mode: POSITIVE
Ionization: ESI
Collision energy: 35.00
Column name: Acquity CSHC18
Retention time: NA
Base peak: 377.1458
Precursor m/z: 377.1458
Precursor type: [M-HO3P+H]+
m/z	relative intensity
145.0771	46
157.0707	25
159.0939	13
170.0709	97
171.078	21
172.0868	999
173.0883	134
174.0911	12
182.0709	19
183.0892	8
184.0871	20
186.1021	19
197.0937	40
198.0661	862
199.0698	112
200.0806	149
201.0854	16
209.0955	11
210.1008	15
213.0986	11
214.0955	30
216.0772	302
217.0802	41
225.0781	20
226.066	15
243.0879	562
244.0897	79
