Mass spectrum: 4-hydroxyphenylacetic acid; LC-ESI-QTOF; MS2; CE: 15.00;  [M+Na]+
Name: 4-hydroxyphenylacetic acid
Class: NA
Formula: C8H8O3
Exact mass: 152.0473
SMILES: C1=CC(=CC=C1CC(=O)O)O
InChI: InChI=1S/C8H8O3/c9-7-3-1-6(2-4-7)5-8(10)11/h1-4,9H,5H2,(H,10,11)
Instrument: Bruker MicrOTOF-Q
Instrument type: LC-ESI-QTOF
Ms type: MS2
Ion mode: POSITIVE
Ionization: ESI
Collision energy: 15.00
Column name: Acquity CSHC18
Retention time: NA
Base peak: 175.0366
Precursor m/z: 175.0366
Precursor type: [M+Na]+
m/z	relative intensity
45.2417	1
82.861	1
106.6553	1
106.7397	1
107.0451	999
107.198	1
107.2447	2
107.2767	2
107.3721	1
107.5063	1
108.0485	77
108.407	1
242.1556	1
