Mass spectrum: Prostaglandin F2-alpha Ethanolamide; ESI-TOF; MS2; CE: 0.6458333;  [M+H]+
Name: Prostaglandin F2-alpha Ethanolamide
Class: NA
Formula: C22H39NO5
Exact mass: 397.28282
SMILES: CCCCCC(C=CC1C(CC(C1CC=CCCCC(=O)NCCO)O)O)O
InChI: InChI=1S/C22H39NO5/c1-2-3-6-9-17(25)12-13-19-18(20(26)16-21(19)27)10-7-4-5-8-11-22(28)23-14-15-24/h4,7,12-13,17-21,24-27H,2-3,5-6,8-11,14-16H2,1H3,(H,23,28)
Instrument: waters xevo g2 TOF
Instrument type: ESI-TOF
Ms type: MS2
Ion mode: POSITIVE
Ionization: ESI
Collision energy: 0.6458333
Column name: Acquity CSHC18
Retention time: 3.293 min
Base peak: 398.29082
Precursor m/z: 398.29082
Precursor type: [M+H]+
m/z	relative intensity
62.0593	282
69.0701	31
79.0548	116
81.0708	191
83.0852	23
88.0576	17
91.0549	181
93.0707	245
95.0863	62
97.0663	27
98.0598	68
107.0856	159
109.1012	86
117.0713	213
119.0863	223
121.1016	27
128.0717	129
129.0709	183
130.0877	94
131.087	415
133.1016	151
135.1176	59
138.0926	16
141.0699	64
142.0821	22
143.0872	272
145.1033	303
146.1053	32
147.1188	110
154.0878	58
155.0868	169
157.1021	425
159.1177	161
161.0961	30
163.1479	78
165.022	15
167.0863	46
169.1019	224
171.1181	415
172.0963	39
173.1346	109
174.1122	111
175.1123	57
181.1024	162
183.119	120
185.1333	278
187.1126	130
189.1271	29
190.0551	12
194.023	11
195.1179	128
197.132	80
199.1481	240
201.1635	83
208.0945	23
210.1282	25
211.15	32
213.1276	89
215.1797	212
216.1831	24
224.0339	21
226.0501	30
227.1796	34
229.1963	87
239.1803	187
241.1947	999
242.1983	135
247.2044	96
252.0924	23
255.209	214
256.2397	24
257.1908	174
259.2049	35
264.1932	16
265.1943	213
283.2063	780
284.209	158
301.2175	109
308.2591	96
309.2624	11
313.1494	21
318.2417	281
326.1786	64
336.2582	21
338.1761	39
344.2226	538
345.2621	220
354.1519	11
355.7282	28
356.186	201
358.2074	21
359.1678	21
360.1694	23
361.1697	164
362.2697	165
363.225	22
368.2242	33
374.2002	65
375.2033	134
376.233	14
377.2375	94
377.7405	48
380.2802	165
386.2376	81
386.7422	25
389.1705	140
390.1728	604
390.7557	19
391.1748	165
392.1776	29
399.2529	143
