Mass spectrum: 15(R)-15-methyl Prostaglandin F2-alpha methyl ester; ESI-TOF; MS2; CE: 6.0000000;  [M+H]+
Name: 15(R)-15-methyl Prostaglandin F2-alpha methyl ester
Class: NA
Formula: C22H38O5
Exact mass: 382.27192
SMILES: CCCCCC(C)(C=CC1C(CC(C1CC=CCCCC(=O)OC)O)O)O
InChI: InChI=1S/C22H38O5/c1-4-5-10-14-22(2,26)15-13-18-17(19(23)16-20(18)24)11-8-6-7-9-12-21(25)27-3/h6,8,13,15,17-20,23-24,26H,4-5,7,9-12,14,16H2,1-3H3
Instrument: waters xevo g2 TOF
Instrument type: ESI-TOF
Ms type: MS2
Ion mode: POSITIVE
Ionization: ESI
Collision energy: 6.0000000
Column name: Acquity CSHC18
Retention time: 4.093 min
Base peak: 383.27992
Precursor m/z: 383.27992
Precursor type: [M+H]+
m/z	relative intensity
81.0696	13
101.0081	14
103.9608	13
127.9792	54
180.0999	165
181.1107	47
185.0973	31
193.6053	17
202.1127	92
217.1601	40
218.1241	11
223.0642	28
233.1527	17
235.1325	37
251.2022	31
261.2196	24
291.2286	72
293.248	185
297.2208	165
298.2247	28
303.2322	87
304.2966	19
315.2327	210
316.2353	43
329.2482	999
330.251	215
331.2558	28
346.1593	94
347.2072	567
348.2617	230
365.2689	357
366.2728	74
367.275	11
375.1635	17
384.2375	68
384.7404	37
