Mass spectrum: L-Arabitol; ESI-TOF; MS2; CE: 6.0000000;  [M+H]+
Name: L-Arabitol
Class: NA
Formula: C5H12O5
Exact mass: 152.06847
SMILES: OCC(O)C(O)C(O)CO
InChI: InChI=1S/C5H12O5/c6-1-3(8)5(10)4(9)2-7/h3-10H,1-2H2
Instrument: waters xevo g2 TOF
Instrument type: ESI-TOF
Ms type: MS2
Ion mode: POSITIVE
Ionization: ESI
Collision energy: 6.0000000
Column name: Acquity CSHC18
Retention time: 0.564 min
Base peak: 153.07647
Precursor m/z: 153.07647
Precursor type: [M+H]+
m/z	relative intensity
57.0346	25
69.0344	161
71.0494	28
73.0294	32
99.0446	678
100.0486	28
113.9409	501
116.5299	19
117.038	992
126.0268	22
131.9885	56
135.0657	999
136.0688	55
137.9881	300
140.0456	8
141.0316	129
144.9615	5
149.0181	38
150.0188	56
151.0162	9
153.0764	391
154.0385	13
