Mass spectrum: CORTICOSTERONE; LC-ESI-QFT; MS2; CE: 30eV;  [M+H]+
Name: CORTICOSTERONE
Class: NA
Formula: C21H30O4
Exact mass: 346.21441
SMILES: CC12CCC(=O)C=C1CCC3C2C(CC4(C3CCC4C(=O)CO)C)O
InChI: InChI=1S/C21H30O4/c1-20-8-7-13(23)9-12(20)3-4-14-15-5-6-16(18(25)11-22)21(15,2)10-17(24)19(14)20/h9,14-17,19,22,24H,3-8,10-11H2,1-2H3
Instrument: Q-Exactive Orbitrap, Thermo Scientfic; Ultimate 3000 HPLC, Thermo Scientfic
Instrument type: LC-ESI-QFT
Ms type: MS2
Ion mode: POSITIVE
Ionization: ESI
Collision energy: 30eV
Column name: Acquity CSHC18
Retention time: 9.178 min
Base peak: 347.2217
Precursor m/z: 347.2217
Precursor type: [M+H]+
Precursor intensity: 127
m/z	relative intensity
69.0523	21
83.0678	23
87.0595	24
95.0677	30
97.0833	32
99.0627	44
107.0676	49
109.0832	58
111.0624	67
123.0987	80
133.083	96
135.0986	107
139.0938	108
145.083	114
147.0986	116
149.1142	117
151.0938	126
157.0829	131
159.1068	152
161.1142	155
163.1118	157
165.1088	171
167.096	175
171.0985	177
173.1142	178
175.1298	185
177.1092	193
179.0958	223
185.1141	226
187.1299	234
193.1118	236
195.1274	244
197.1144	255
199.1301	258
201.1455	265
203.1247	275
207.1276	297
211.1297	301
213.1455	313
219.1273	321
221.1428	326
223.1297	332
225.1455	336
227.1611	336
229.1403	359
233.1429	361
237.1452	367
239.1608	371
243.1559	380
247.1583	420
251.161	491
253.1766	501
255.1739	506
265.1764	507
269.1714	657
271.1872	790
283.1874	999
