Mass spectrum: 4-Aminohippuric acid; LC-ESI-ITFT; MS2; CE: 20;  [M+H]+
Name: 4-Aminohippuric acid
Class: Benzenoids; Benzene and substituted derivatives; Benzoic acids and derivatives
Formula: C9H10N2O3
Exact mass: 194.06914
SMILES: NC1=CC=C(C=C1)C(=O)NCC(O)=O
InChI: InChI=1S/C9H10N2O3/c10-7-3-1-6(2-4-7)9(14)11-5-8(12)13/h1-4H,5,10H2,(H,11,14)(H,12,13)
Instrument: Thermo Scientific Q-Exactive Focus
Instrument type: LC-ESI-ITFT
Ms type: MS2
Ion mode: POSITIVE
Ionization: ESI
Collision energy: 20
Column name: Acquity CSHC18
Retention time: 0.632 min
Base peak: 195.07642
Precursor m/z: 195.07642
Precursor type: [M+H]+
m/z	relative intensity
65.0391	21
68.05	5
92.0498	50
93.0575	1
94.0655	3
103.0182	1
110.0602	14
120.0446	999
149.0709	16
151.0867	1
