Mass spectrum: Tirotundifolin C, epoxyangelate; LC-ESI-ITFT; MS2; CE: 50eV;  [M+H]+
Name: Tirotundifolin C, epoxyangelate
Class: Sesquiterpenelactone; Eudesmanolide
Formula: C20H26O6
Exact mass: 362.1729
SMILES: CC4OC4(C)C(=O)O[C@@H]2C[C@@]3(C)[C@H](O)CC=C(C)[C@@H]3[C@H]1OC(=O)C(=C)[C@@H]12
InChI: InChI=1S/C20H26O6/c1-9-6-7-13(21)19(4)8-12(24-18(23)20(5)11(3)26-20)14-10(2)17(22)25-16(14)15(9)19/h6,11-16,21H,2,7-8H2,1,3-5H3/t11?,12-,13-,14-,15-,16+,19+,20?/m1/s1
Instrument: Q Exactive Plus, ThermoFisher Scientific
Instrument type: LC-ESI-ITFT
Ms type: MS2
Ion mode: POSITIVE
Ionization: ESI
Collision energy: 50eV
Column name: Acquity CSHC18
Retention time: 6.991 min
Base peak: 363.1794
Precursor m/z: 363.1794
Precursor type: [M+H]+
Precursor intensity: 10203510
m/z	relative intensity
70.399	13
99.0449	20
107.0854	8
121.0649	22
131.0857	8
137.0588	6
143.0853	23
145.05	23
145.1014	12
151.0753	31
157.1006	39
159.1155	39
171.0794	26
173.0597	11
173.1335	40
175.0765	7
175.1117	7
181.1005	7
183.1168	999
185.095	10
185.1332	24
187.074	37
187.1128	37
189.0898	8
193.1008	14
201.1279	190
203.1054	46
211.1129	225
219.138	81
229.121	868
247.1336	533
265.1442	192
299.162	10
300.0424	10
318.0524	10
335.1876	26
345.1722	69
357.8	8
363.1812	305
