Mass spectrum: GLUCOSAMINE 6-SULFATE; LC-ESI-QFT; MS2; CE: 30eV;  [M+H]+
Name: GLUCOSAMINE 6-SULFATE
Class: NA
Formula: C6H13NO8S
Exact mass: 259.03619
SMILES: N[C@H]1[C@H](O)O[C@H](COS(O)(=O)=O)[C@@H](O)[C@@H]1O
InChI: InChI=1S/C6H13NO8S/c7-3-5(9)4(8)2(15-6(3)10)1-14-16(11,12)13/h2-6,8-10H,1,7H2,(H,11,12,13)/t2-,3-,4-,5-,6-/m1/s1
Instrument: Q-Exactive Orbitrap, Thermo Scientfic; Ultimate 3000 HPLC, Thermo Scientfic
Instrument type: LC-ESI-QFT
Ms type: MS2
Ion mode: POSITIVE
Ionization: ESI
Collision energy: 30eV
Column name: Acquity CSHC18
Retention time: 0.554 min
Base peak: 260.0435
Precursor m/z: 260.0435
Precursor type: [M+H]+
Precursor intensity: 187
m/z	relative intensity
73.0389	123
85.0389	227
99.0149	794
145.0595	999
