Mass spectrum: O-acyl sugar AS13; LC-ESI-QTOF; MS2; CE: 22.5eV; [M+Na]+
Name: O-acyl sugar AS13
Class: O-acyl sugar
Formula: C30H48O16
Exact mass: 664.2942
SMILES: CC(C)C(=O)O[C@H]1[C@H](O[C@H](COC(C)=O)[C@@H](OC(=O)C(C)CC)[C@@H]1OC(=O)C(C)CC)O[C@]1(CO)O[C@H](CO)[C@@H](OC(C)=O)[C@@H]1O
InChI: InChI=1S/C30H48O16/c1-9-15(5)27(37)42-21-20(12-39-17(7)33)41-29(24(44-26(36)14(3)4)23(21)43-28(38)16(6)10-2)46-30(13-32)25(35)22(40-18(8)34)19(11-31)45-30/h14-16,19-25,29,31-32,35H,9-13H2,1-8H3/t15?,16?,19-,20-,21-,22-,23+,24-,25+,29-,30+/m1/s1
Instrument: Microtof-q MS
Instrument type: LC-ESI-QTOF
Ms type: MS2
Ion mode: POSITIVE
Ionization: ESI
Collision energy: 22.5eV
Column name: Acquity CSH C18 column (particle size 1.7 μm, column length 2.1 × 50 mm) (Waters)
Retention time: NA
Base peak: 687.2861
Precursor m/z: 687.2861
Precursor type: [M+Na]+
m/z	relative intensity
97.0284	73
205.0735	105
381.1548	90
483.2189	472
585.2123	45
599.2303	34
687.2861	999
