Mass spectrum: Coenzyme Q6 (S. cerevisiae); ESI-TOF; MS2; CE: 6.0000000;  [M+H]+
Name: Coenzyme Q6 (S. cerevisiae)
Class: NA
Formula: C39H58O4
Exact mass: 590.43351
SMILES: [H]C(=C(C([H])([H])[H])C([H])([H])C([H])([H])C([H])=C(C([H])([H])[H])C([H])([H])C([H])([H])C([H])=C(C([H])([H])[H])C([H])([H])C([H])([H])C([H])=C(C([H])([H])[H])C([H])([H])C([H])([H])C([H])=C(C([H])([H])[H])C([H])([H])C([H])([H])C([H])=C(C([H])([H])[H])C([H])([H])[H])C([H])([H])C=1C(=O)C(OC([H])([H])[H])=C(OC([H])([H])[H])C(=O)C=1C([H])([H])[H]
InChI: InChI=1S/C39H58O4/c1-28(2)16-11-17-29(3)18-12-19-30(4)20-13-21-31(5)22-14-23-32(6)24-15-25-33(7)26-27-35-34(8)36(40)38(42-9)39(43-10)37(35)41/h16,18,20,22,24,26H,11-15,17,19,21,23,25,27H2,1-10H3
Instrument: waters xevo g2 TOF
Instrument type: ESI-TOF
Ms type: MS2
Ion mode: POSITIVE
Ionization: ESI
Collision energy: 6.0000000
Column name: Acquity CSHC18
Retention time: 11.816 min
Base peak: 591.44151
Precursor m/z: 591.44151
Precursor type: [M+H]+
m/z	relative intensity
95.0862	7
107.0859	3
109.1017	13
123.1176	11
135.1172	6
137.1325	11
149.133	21
151.1478	2
163.1488	15
167.0712	2
173.1329	4
175.1484	6
177.164	16
178.1677	1
181.0866	9
187.148	3
189.1644	9
191.1802	13
195.1015	1
197.0816	161
198.0846	59
199.0861	6
201.1647	3
203.1801	15
204.1829	1
205.195	9
207.102	1
209.0818	3
211.0971	7
215.1793	3
217.1954	13
218.2002	1
219.1468	3
221.1013	6
222.0856	1
223.0967	7
231.1565	7
232.2133	1
233.1178	2
237.0785	20
238.1157	4
243.2115	4
245.2275	11
247.1319	2
251.1288	13
257.2271	6
259.1881	5
263.1285	22
265.1468	3
271.2426	8
273.2026	4
274.0516	3
275.145	1
277.1434	5
281.0528	5
285.2034	3
285.7183	3
289.0748	7
291.1621	1
299.2744	5
301.2901	1
303.1588	4
305.1765	7
311.2754	1
313.2919	5
315.1985	18
315.878	30
316.5566	24
317.2621	10
324.0428	2
325.0445	3
325.546	2
326.0425	2
329.3215	1
330.2219	5
330.723	2
331.1908	11
337.2289	4
339.3047	9
340.3109	2
341.3209	6
342.1128	2
345.2043	5
350.2364	2
353.199	2
355.2273	13
356.1511	14
358.0709	4
359.2262	3
367.7221	8
371.1824	8
371.9105	65
373.1839	7
373.7236	1
374.2405	4
380.2076	8
381.2703	7
382.2879	3
383.2997	2
385.2384	3
387.253	6
392.2302	10
392.7318	3
395.3671	37
396.37	11
399.2518	11
400.26	3
401.2683	2
407.3666	7
408.3658	2
409.3817	14
410.3884	3
413.2687	7
415.036	1
419.3527	9
423.2921	7
427.2866	4
439.2845	5
440.284	1
441.3009	42
442.3015	13
443.3106	4
445.1214	2
453.3028	4
455.3169	20
456.3177	6
465.3743	3
467.3163	15
468.3181	3
479.3243	3
479.8241	2
481.333	6
482.3334	2
483.3451	2
491.3506	1
495.3474	14
496.3493	4
497.3579	1
507.3447	2
509.3643	42
510.3678	16
515.4123	4
519.3795	2
523.377	6
527.3879	8
528.3904	3
535.3783	11
536.3819	3
538.3984	4
541.404	6
543.444	5
545.4341	1
555.1707	2
559.4149	26
560.418	11
561.4244	3
563.444	4
564.4455	1
567.4308	3
573.4313	107
574.435	47
575.4342	12
577.2762	7
578.1307	5
579.1275	3
589.4259	34
590.4276	22
591.4678	999
592.4448	909
593.1594	8
