Mass spectrum: N-Octanoyl-L-homoserine lactone; LC-ESI-ITFT; MS2; CE: 20;  [M+H]+
Name: N-Octanoyl-L-homoserine lactone
Class: NA
Formula: C12H21NO3
Exact mass: 227.15214
SMILES: CCCCCCCC(=O)N[C@H]1CCOC1=O
InChI: InChI=1S/C12H21NO3/c1-2-3-4-5-6-7-11(14)13-10-8-9-16-12(10)15/h10H,2-9H2,1H3,(H,13,14)/t10-/m0/s1
Instrument: Thermo Scientific Q-Exactive Focus
Instrument type: LC-ESI-ITFT
Ms type: MS2
Ion mode: POSITIVE
Ionization: ESI
Collision energy: 20
Column name: Acquity CSHC18
Retention time: 0.634 min
Base peak: 228.15942
Precursor m/z: 228.15942
Precursor type: [M+H]+
m/z	relative intensity
56.05	38
57.0705	999
67.0547	52
74.0241	24
74.0604	188
84.0447	15
85.0287	17
102.0552	291
109.1013	54
127.1118	68
