Mass spectrum: ADENOSINE 2',3'-CYCLIC PHOSPHATE; LC-ESI-QTOF; MS2; CE: 20;  [M-H]-
Name: ADENOSINE 2',3'-CYCLIC PHOSPHATE
Class: NA
Formula: C10H12N5O6P
Exact mass: 329.05252
SMILES: NC1=NC=NC2=C1N=CN2C1OC(CO)C2OP(O)(=O)OC12
InChI: InChI=1S/C10H12N5O6P/c11-8-5-9(13-2-12-8)15(3-14-5)10-7-6(4(1-16)19-10)20-22(17,18)21-7/h2-4,6-7,10,16H,1H2,(H,17,18)(H2,11,12,13)
Instrument: Agilent 6530Â Q-TOF LC/MS
Instrument type: LC-ESI-QTOF
Ms type: MS2
Ion mode: NEGATIVE
Ionization: ESI
Collision energy: 20
Column name: NA
Retention time: 0.200 min
Base peak: 328.05058
Precursor m/z: 328.05058
Precursor type: [M-H]-
Precursor intensity: 119
m/z	relative intensity
107.0347	135
134.0693	999
