Mass spectrum: Putative_Momordin I; LC-ESI-QTOF; MS2; CE: 20-40eV;  [M+NH4]+
Name: Putative_Momordin I
Class: Triterpene saponins
Formula: C41H64O13
Exact mass: 764.4347
SMILES: CC1(C)CCC2(CCC3(C)C(=CCC4C5(C)CCC(C(C)(C)C5CCC43C)OC6C(C(C(C(C(=O)O)O6)O)OC7C(C(C(CO7)O)O)O)O)C2C1)C(=O)O
InChI: InChI=1S/C41H64O13/c1-36(2)14-16-41(35(49)50)17-15-39(6)20(21(41)18-36)8-9-24-38(5)12-11-25(37(3,4)23(38)10-13-40(24,39)7)52-34-29(46)30(28(45)31(54-34)32(47)48)53-33-27(44)26(43)22(42)19-51-33/h8,21-31,33-34,42-46H,9-19H2,1-7H3,(H,47,48)(H,49,50)
Instrument: Impact II, Bruker; Dionex 3000, Thermo Scientific
Instrument type: LC-ESI-QTOF
Ms type: MS2
Ion mode: POSITIVE
Ionization: ESI
Collision energy: 20-40eV
Column name: Acquity CSHC18
Retention time: 17.436 min
Base peak: 782.4688
Precursor m/z: 782.4688
Precursor type: [M+NH4]+
Precursor intensity: 15012.25
m/z	relative intensity
110.0883	250
133.0761	429
135.098	640
217.18	650
233.1676	999
