Mass spectrum: 15(R)-Pinane Thromboxane A2; ESI-TOF; MS2; CE: 0.6458333;  [M+H]+
Name: 15(R)-Pinane Thromboxane A2
Class: NA
Formula: C24H40O3
Exact mass: 376.29775
SMILES: CCCCC[C@@H](O)/C=C/[C@H]1C[C@H]2C[C@H](C2(C)C)[C@@H]1C/C=C\CCCC(O)=O
InChI: InChI=1S/C24H40O3/c1-4-5-8-11-20(25)15-14-18-16-19-17-22(24(19,2)3)21(18)12-9-6-7-10-13-23(26)27/h6,9,14-15,18-22,25H,4-5,7-8,10-13,16-17H2,1-3H3,(H,26,27)/b9-6-,15-14+/t18-,19-,20+,21+,22-/m0/s1
Instrument: waters xevo g2 TOF
Instrument type: ESI-TOF
Ms type: MS2
Ion mode: POSITIVE
Ionization: ESI
Collision energy: 0.6458333
Column name: Acquity CSHC18
Retention time: 6.787 min
Base peak: 377.30575
Precursor m/z: 377.30575
Precursor type: [M+H]+
m/z	relative intensity
69.0693	38
79.0541	24
81.0707	168
91.055	113
93.0704	125
95.0868	254
101.0613	15
105.0709	248
107.087	177
109.1026	282
117.0709	77
119.0861	263
121.1028	150
123.1177	53
129.0719	64
131.0863	108
133.1025	280
135.1178	88
136.1228	7
137.0986	7
141.0706	60
145.1022	136
147.1181	139
149.1142	50
151.1499	28
153.0903	12
157.1017	56
159.1167	60
160.1208	12
161.1337	65
163.1504	44
165.163	23
169.1013	128
171.0539	25
173.1332	70
175.1491	96
177.1649	39
179.1438	11
181.1229	33
182.0028	15
183.1169	122
185.128	11
187.1122	56
189.1646	56
191.1797	24
193.1243	16
195.1374	33
197.1332	66
199.1258	12
201.1455	63
203.1787	32
205.1303	16
207.1735	11
211.1469	33
213.1639	57
215.1801	31
217.1966	39
221.1522	25
225.1652	22
227.1788	28
229.1573	16
230.16	5
231.2128	64
233.1539	30
235.1671	26
237.1844	26
239.1794	26
243.1222	46
245.2249	33
247.1696	65
248.1747	7
249.1848	47
251.2012	52
253.1952	33
257.1902	35
267.2129	42
271.2057	40
275.2012	87
281.2269	42
285.2207	25
289.2153	38
293.1793	65
295.2382	6
299.2357	44
303.2325	66
313.2618	16
323.2719	23
341.284	58
343.284	3
359.2949	999
360.2984	245
365.3019	17
366.3057	7
