Mass spectrum: 5-trans U-44069; ESI-TOF; MS2; CE: 0.6458333;  [M+H]+
Name: 5-trans U-44069
Class: NA
Formula: C21H34O4
Exact mass: 350.24571
SMILES: CCCCC[C@H](O)/C=C/[C@H]1C(CO2)CC2[C@@H]1C/C=C/CCCC(O)=O
InChI: InChI=1S/C21H34O4/c1-2-3-6-9-17(22)12-13-18-16-14-20(25-15-16)19(18)10-7-4-5-8-11-21(23)24/h4,7,12-13,16-20,22H,2-3,5-6,8-11,14-15H2,1H3,(H,23,24)/b7-4+,13-12+/t16?,17-,18-,19+,20?/m0/s1
Instrument: waters xevo g2 TOF
Instrument type: ESI-TOF
Ms type: MS2
Ion mode: POSITIVE
Ionization: ESI
Collision energy: 0.6458333
Column name: Acquity CSHC18
Retention time: 4.214 min
Base peak: 351.25371
Precursor m/z: 351.25371
Precursor type: [M+H]+
m/z	relative intensity
67.0537	97
69.0699	61
81.07	294
91.0545	578
93.0707	385
95.0855	196
105.0531	290
107.0866	149
109.1008	52
117.0706	563
119.0862	489
120.0886	32
121.1012	5
123.1177	5
128.0626	111
129.0702	407
130.0763	76
131.0864	999
132.0897	118
133.1019	305
135.1009	45
141.0696	175
143.0861	650
144.0883	78
145.1018	690
146.1061	84
147.1177	203
149.1126	52
155.086	159
157.1019	538
159.1171	332
161.1324	81
163.0755	5
164.0803	5
167.0881	72
169.1013	426
171.1178	410
172.1206	65
173.1333	185
175.1486	74
181.1008	240
183.1168	292
184.1237	44
185.0719	229
186.135	47
187.1495	262
188.1536	47
189.1658	86
191.107	31
193.124	16
195.1156	186
197.1328	97
199.111	208
201.164	119
202.1652	31
203.1597	18
205.123	52
207.1368	5
209.1318	171
210.1352	36
213.1279	198
214.1309	31
215.1615	45
219.1353	22
221.1527	5
223.1496	134
227.1439	108
231.1018	53
233.1527	5
241.194	36
243.2061	35
245.1531	58
253.1948	74
255.2098	96
259.1693	5
267.2106	41
269.2247	41
270.2266	5
279.2102	166
280.2113	5
285.2203	63
286.2221	17
287.2303	5
297.222	375
298.2248	68
303.2313	174
304.2325	35
305.2472	5
315.2321	932
316.2346	181
317.2367	5
333.2451	38
334.2458	5
335.249	5
339.2488	103
341.1785	243
