Mass spectrum: 3-METHOXY-4-HYDROXYMANDELATE; LC-ESI-QFT; MS2; CE: 30eV;  [M-H]-
Name: 3-METHOXY-4-HYDROXYMANDELATE
Class: NA
Formula: C9H10O5
Exact mass: 198.05282
SMILES: COC1=C(O)C=CC(=C1)[C@H](O)C(O)=O
InChI: InChI=1S/C9H10O5/c1-14-7-4-5(2-3-6(7)10)8(11)9(12)13/h2-4,8,10-11H,1H3,(H,12,13)/t8-/m0/s1
Instrument: Q-Exactive Orbitrap, Thermo Scientfic; Ultimate 3000 HPLC, Thermo Scientfic
Instrument type: LC-ESI-QFT
Ms type: MS2
Ion mode: NEGATIVE
Ionization: ESI
Collision energy: 30eV
Column name: Acquity CSHC18
Retention time: 1.281 min
Base peak: 197.0455
Precursor m/z: 197.0455
Precursor type: [M-H]-
Precursor intensity: 172
m/z	relative intensity
53.4903	2
56.7872	3
56.8051	3
57.6584	3
59.3423	3
59.8426	3
61.9868	6
62.8329	3
66.0427	3
66.1447	3
66.7493	3
72.5668	3
74.1936	3
74.2831	3
75.1706	3
75.1933	3
77.5504	3
91.9108	33
99.2334	3
103.9188	16
107.9056	34
109.6016	3
121.0278	4
123.9002	4
126.6653	4
135.9006	59
136.0154	19
137.0231	976
138.0267	40
138.0309	999
139.0344	52
139.3428	4
151.0388	4
153.0546	20
160.8411	5
162.8381	23
169.9068	4
181.3605	4
183.3416	4
186.8465	3
197.0448	385
197.807	20
198.0481	20
198.8009	4
