Mass spectrum: L-lysine; LC-ESI-QTOF; MS2; CE: 15.00;  [M+H]+
Name: L-lysine
Class: NA
Formula: C6H14N2O2
Exact mass: 146.1055
SMILES: C(CCN)CC(C(=O)O)N
InChI: InChI=1S/C6H14N2O2/c7-4-2-1-3-5(8)6(9)10/h5H,1-4,7-8H2,(H,9,10)
Instrument: Bruker MicrOTOF-Q
Instrument type: LC-ESI-QTOF
Ms type: MS2
Ion mode: POSITIVE
Ionization: ESI
Collision energy: 15.00
Column name: Acquity CSHC18
Retention time: NA
Base peak: 147.1128
Precursor m/z: 147.1128
Precursor type: [M+H]+
m/z	relative intensity
112.0724	27
129.0812	16
129.1099	28
130.0846	999
131.0866	80
