Mass spectrum: (R,S)- Tetrahydrocolumbamine; ESI-QTOF; MS2; CE: 1, 35, 60;  [M+H]+
Name: (R,S)- Tetrahydrocolumbamine
Class: Benzylisoquinoline (subclass:Benzophenanthridine) alkaloid
Formula: C20H23NO4
Exact mass: 341.1627
SMILES: COC1=C(C2=C(CC3C4=CC(=C(C=C4CCN3C2)OC)O)C=C1)OC
InChI: InChI=1S/C20H23NO4/c1-23-18-5-4-12-8-16-14-10-17(22)19(24-2)9-13(14)6-7-21(16)11-15(12)20(18)25-3/h4-5,9-10,16,22H,6-8,11H2,1-3H3
Instrument: AB Sciex TripleToF 5500
Instrument type: ESI-QTOF
Ms type: MS2
Ion mode: POSITIVE
Ionization: ESI
Collision energy: 1, 35, 60
Column name: Acquity CSHC18
Retention time: 5.387 min
Base peak: 342.1707
Precursor m/z: 342.1707
Precursor type: [M+H]+
Precursor intensity: 1126312
m/z	relative intensity
91.0493	8
107.0583	12
120.0449	18
136.0607	18
161.0688	22
165.0783	26
175.0643	44
178.0761	45
191.0832	52
192.0945	64
265.093	67
294.1051	76
342.1611	999
