Mass spectrum: CAY10510; ESI-TOF; MS2; CE: 6.0000000;  [M+H]+
Name: CAY10510
Class: NA
Formula: C24H33FO5
Exact mass: 420.23120
SMILES: FC(C=CC=C1)=C1C#CC(O)CC[C@H]2[C@H](O)C[C@H](O)[C@@H]2CCCCCCC(OC)=O
InChI: InChI=1S/C24H33FO5/c1-30-24(29)11-5-3-2-4-9-19-20(23(28)16-22(19)27)15-14-18(26)13-12-17-8-6-7-10-21(17)25/h6-8,10,18-20,22-23,26-28H,2-5,9,11,14-16H2,1H3/t18?,19-,20-,22+,23-/m1/s1
Instrument: waters xevo g2 TOF
Instrument type: ESI-TOF
Ms type: MS2
Ion mode: POSITIVE
Ionization: ESI
Collision energy: 6.0000000
Column name: Acquity CSHC18
Retention time: 3.805 min
Base peak: 421.23920
Precursor m/z: 421.23920
Precursor type: [M+H]+
m/z	relative intensity
109.0466	3
123.0251	40
127.9644	3
131.0868	22
135.0622	6
139.0555	2
147.1171	2
161.0776	22
193.123	17
196.072	9
197.1318	15
211.0922	3
212.0864	179
212.5878	18
213.088	4
215.1441	38
216.1473	2
221.1218	60
221.5912	27
223.1694	14
225.15	25
228.0997	29
229.0769	2
232.599	7
237.1081	13
243.1194	3
245.1507	5
247.1688	45
251.1241	2
261.1833	2
317.1702	19
318.175	1
325.193	3
329.1905	1
331.2055	2
335.1816	82
336.1831	21
341.1906	2
353.1917	278
354.1957	63
355.159	8
357.2203	17
358.2225	3
367.2069	289
368.212	70
369.2234	9
371.1997	46
372.2048	9
385.2182	999
386.2208	278
387.2267	41
388.2219	3
403.2294	105
404.2327	27
421.238	23
422.2211	5
