Mass spectrum: Diethanolamine; ESI-TOF; MS2; CE: 0.6458333;  [M+H]+
Name: Diethanolamine
Class: NA
Formula: C4H11NO2
Exact mass: 105.07898
SMILES: OCCNCCO
InChI: InChI=1S/C4H11NO2/c6-3-1-5-2-4-7/h5-7H,1-4H2
Instrument: waters xevo g2 TOF
Instrument type: ESI-TOF
Ms type: MS2
Ion mode: POSITIVE
Ionization: ESI
Collision energy: 0.6458333
Column name: Acquity CSHC18
Retention time: 0.474 min
Base peak: 106.08698
Precursor m/z: 106.08698
Precursor type: [M+H]+
m/z	relative intensity
70.0658	4
72.9378	200
88.0761	277
101.9335	148
101.94	93
102.1284	4
106.0861	77
106.0865	510
107.0895	4
113.9637	999
126.9718	86
128.0677	4
137.988	4
140.9851	4
141.9589	4
154.9907	4
157.9912	4
158.003	4
158.0032	4
163.9772	4
163.9775	4
163.9777	4
205.0048	4
236.9398	4
264.077	4
265.0838	4
267.0853	4
269.079	4
286.061	4
287.8862	4
319.0055	154
422.0697	4
425.0742	4
