Mass spectrum: 1-(1Z-octadecenyl)-2-oleoyl-sn-glycero-3-phosphoethanolamine; ESI-TOF; MS2; CE: 0.6458333;  [M+H]+
Name: 1-(1Z-octadecenyl)-2-oleoyl-sn-glycero-3-phosphoethanolamine
Class: NA
Formula: C41H80NO7P
Exact mass: 729.56724
SMILES: [H]C(OC([H])([H])C([H])(OC(=O)C([H])([H])C([H])([H])C([H])([H])C([H])([H])C([H])([H])C([H])([H])C([H])([H])C([H])=C([H])C([H])([H])C([H])([H])C([H])([H])C([H])([H])C([H])([H])C([H])([H])C([H])([H])C([H])([H])[H])C([H])([H])OP(=O)([O-])OC([H])([H])C([H])([H])[N+]([H])([H])[H])=C([H])C([H])([H])C([H])([H])C([H])([H])C([H])([H])C([H])([H])C([H])([H])C([H])([H])C([H])([H])C([H])([H])C([H])([H])C([H])([H])C([H])([H])C([H])([H])C([H])([H])C([H])([H])C([H])([H])[H]
InChI: InChI=1S/C41H80NO7P/c1-3-5-7-9-11-13-15-17-19-21-23-25-27-29-31-33-36-46-38-40(39-48-50(44,45)47-37-35-42)49-41(43)34-32-30-28-26-24-22-20-18-16-14-12-10-8-6-4-2/h18,20,33,36,40H,3-17,19,21-32,34-35,37-39,42H2,1-2H3,(H,44,45)
Instrument: waters xevo g2 TOF
Instrument type: ESI-TOF
Ms type: MS2
Ion mode: POSITIVE
Ionization: ESI
Collision energy: 0.6458333
Column name: Acquity CSHC18
Retention time: 11.902 min
Base peak: 730.57524
Precursor m/z: 730.57524
Precursor type: [M+H]+
m/z	relative intensity
135.1172	11
164.0091	14
265.2528	13
294.3158	33
308.3008	14
339.2902	999
340.2934	229
341.2961	24
392.2935	484
393.2949	113
394.2962	15
443.2235	46
444.2282	14
462.2988	24
589.5572	137
590.5591	53
591.5593	9
709.5144	26
710.5194	9
712.5646	18
713.5645	8
725.4809	22
730.5765	305
731.5791	144
732.5811	32
733.583	3
749.5487	14
750.0508	9
750.5527	9
751.0568	1
752.5582	79
753.5609	51
754.5633	14
768.5228	26
769.0235	8
769.5257	11
776.5045	3
777.0064	3
980.8381	10
1115.3352	3
1115.8341	1
