Mass spectrum: Noscapine; LC-ESI-QTOF; MS2; CE: 23.56;  [M+H]+
Name: Noscapine
Class: NA
Formula: C22H23NO7
Exact mass: 413.1475
SMILES: CN1CCC2=CC3=C(C(=C2C1C4C5=C(C(=C(C=C5)OC)OC)C(=O)O4)OC)OCO3
InChI: InChI=1S/C22H23NO7/c1-23-8-7-11-9-14-20(29-10-28-14)21(27-4)15(11)17(23)18-12-5-6-13(25-2)19(26-3)16(12)22(24)30-18/h5-6,9,17-18H,7-8,10H2,1-4H3
Instrument: Bruker MicrOTOF-Q
Instrument type: LC-ESI-QTOF
Ms type: MS2
Ion mode: POSITIVE
Ionization: ESI
Collision energy: 23.56
Column name: Acquity CSHC18
Retention time: NA
Base peak: 414.1547
Precursor m/z: 414.1547
Precursor type: [M+H]+
m/z	relative intensity
179.0709	19
205.0739	20
206.0819	21
219.0897	22
220.0986	23
221.1012	24
322.0852	26
323.0927	27
324.0992	28
325.1073	29
334.0856	30
335.0904	30
338.0863	33
350.0807	41
351.0854	43
352.0985	59
353.1043	60
354.1074	71
355.1157	96
365.1042	96
366.1067	104
381.1241	105
396.1455	139
414.1562	486
415.1598	999
