Mass spectrum: Gallic acid; LC-ESI-ITFT; MS2; CE: 30;  [M-H]-
Name: Gallic acid
Class: Benzenoids; Benzene and substituted derivatives; Benzoic acids and derivatives
Formula: C7H6O5
Exact mass: 170.02152
SMILES: OC(=O)C1=CC(O)=C(O)C(O)=C1
InChI: InChI=1S/C7H6O5/c8-4-1-3(7(11)12)2-5(9)6(4)10/h1-2,8-10H,(H,11,12)
Instrument: Thermo Scientific Q-Exactive Focus
Instrument type: LC-ESI-ITFT
Ms type: MS2
Ion mode: NEGATIVE
Ionization: ESI
Collision energy: 30
Column name: Acquity CSHC18
Retention time: 0.928 min
Base peak: 169.01425
Precursor m/z: 169.01425
Precursor type: [M-H]-
m/z	relative intensity
67.0177	167
69.0334	978
79.0177	228
81.0334	58
95.0126	150
97.0283	439
123.0076	67
124.0155	597
125.0233	999
176.7868	28
