Mass spectrum: stevioside hydrate; LC-ESI-ITFT; MS2; CE: 0.3;  [M-H]-
Name: stevioside hydrate
Class: steviol glycoside
Formula: C38H60O18
Exact mass: 804.3780
SMILES: CC12CCCC(C1CCC34C2CCC(C3)(C(=C)C4)OC5C(C(C(C(O5)CO)O)O)OC6C(C(C(C(O6)CO)O)O)O)(C)C(=O)OC7C(C(C(C(O7)CO)O)O)O
InChI: InChI=1S/C38H60O18/c1-16-11-37-9-5-20-35(2,7-4-8-36(20,3)34(50)55-32-29(49)26(46)23(43)18(13-40)52-32)21(37)6-10-38(16,15-37)56-33-30(27(47)24(44)19(14-41)53-33)54-31-28(48)25(45)22(42)17(12-39)51-31/h17-33,39-49H,1,4-15H2,2-3H3
Instrument: LTQ-Orbitrap XL hybrid mass spectrometer (Thermo Scientific)
Instrument type: LC-ESI-ITFT
Ms type: MS2
Ion mode: NEGATIVE
Ionization: ESI
Collision energy: 0.3
Column name: Acquity CSHC18
Retention time: 9.078 min
Base peak: 803.3696
Precursor m/z: 803.3696
Precursor type: [M-H]-
Precursor intensity: 6171909
m/z	relative intensity
217.1281	38
225.8681	41
255.3829	38
268.1237	34
270.2738	35
287.2586	90
287.2654	159
287.2772	236
287.2925	68
288.9589	40
291.4786	40
323.8186	72
323.9793	35
351.5514	62
376.391	38
442.117	34
456.8178	92
478.4995	86
541.3832	39
633.3338	39
641.2833	46
641.3162	999
642.2828	52
657.8207	64
689.042	70
784.4902	54
803.6124	38
