Mass spectrum: Glutamic acid; LC-ESI-QTOF; MS2; CE: 15 / 50;  [M+H]+
Name: Glutamic acid
Class: NA
Formula: C5H9NO4
Exact mass: 147.05316
SMILES: C(CC(=O)O)C(C(=O)O)N
InChI: InChI=1S/C5H9NO4/c6-3(5(9)10)1-2-4(7)8/h3H,1-2,6H2,(H,7,8)(H,9,10)
Instrument: impact II
Instrument type: LC-ESI-QTOF
Ms type: MS2
Ion mode: POSITIVE
Ionization: ESI
Collision energy: 15 / 50
Column name: Acquity CSHC18
Retention time: 0.551 min
Base peak: 148.06040
Precursor m/z: 148.06040
Precursor type: [M+H]+
m/z	relative intensity
56.0502	270
84.0447	999
102.055	363
130.0502	356
