Mass spectrum: 12-HETE; LC-ESI-ITFT; MS2; CE: 60;  [M-H]-
Name: 12-HETE
Class: Lipids and lipid-like molecules; Fatty Acyls; Eicosanoids
Formula: C20H32O3
Exact mass: 320.23514
SMILES: CCCCC/C=C\CC(/C=C\C=C/C/C=C/CCCC(=O)O)O
InChI: InChI=1S/C20H32O3/c1-2-3-4-5-10-13-16-19(21)17-14-11-8-6-7-9-12-15-18-20(22)23/h7-11,13-14,17,19,21H,2-6,12,15-16,18H2,1H3,(H,22,23)/b9-7+,11-8-,13-10-,17-14-
Instrument: Thermo Scientific Q-Exactive Focus
Instrument type: LC-ESI-ITFT
Ms type: MS2
Ion mode: NEGATIVE
Ionization: ESI
Collision energy: 60
Column name: Acquity CSHC18
Retention time: 1.765 min
Base peak: 319.22787
Precursor m/z: 319.22787
Precursor type: [M-H]-
m/z	relative intensity
59.0126	999
107.5454	141
133.9949	132
186.158	132
198.3199	147
202.5688	146
260.3346	134
270.8166	134
283.8336	141
316.3479	137
