Mass spectrum: Chlorogenic acid; LC-ESI-QFT; MS2; CE: 15,30,45 (NCE);  [M+Na]+
Name: Chlorogenic acid
Class: NA
Formula: C16H18O9
Exact mass: 354.0951
SMILES: C1C(C(C(CC1(C(=O)O)O)OC(=O)C=CC2=CC(=C(C=C2)O)O)O)O
InChI: InChI=1S/C16H18O9/c17-9-3-1-8(5-10(9)18)2-4-13(20)25-12-7-16(24,15(22)23)6-11(19)14(12)21/h1-5,11-12,14,17-19,21,24H,6-7H2,(H,22,23)
Instrument: QE Focus, Thermo Scientfic; UPLC I-Class, Waters
Instrument type: LC-ESI-QFT
Ms type: MS2
Ion mode: POSITIVE
Ionization: ESI
Collision energy: 15,30,45 (NCE)
Column name: Acquity CSHC18
Retention time: 0.887 min
Base peak: 377.0844
Precursor m/z: 377.0844
Precursor type: [M+Na]+
Precursor intensity: 14433500
m/z	relative intensity
50.1595	2
51.0042	2
57.0693	2
60.1099	2
74.6776	2
79.0625	2
89.7767	2
90.1499	2
93.0548	3
105.5903	2
145.0287	2
163.0387	26
179.0312	11
185.0206	31
197.0421	25
203.033	3
210.4266	2
215.0526	62
223.1202	2
327.5929	2
331.0776	4
359.0755	25
377.0845	999
