Mass spectrum: Phosphoserine; LC-ESI-QTOF; MS2; CE: 10;  [M+H]+
Name: Phosphoserine
Class: NA
Formula: C3H8NO6P
Exact mass: 185.00892
SMILES: C(C(C(=O)O)N)OP(=O)(O)O
InChI: InChI=1S/C3H8NO6P/c4-2(3(5)6)1-10-11(7,8)9/h2H,1,4H2,(H,5,6)(H2,7,8,9)
Instrument: impact II
Instrument type: LC-ESI-QTOF
Ms type: MS2
Ion mode: POSITIVE
Ionization: ESI
Collision energy: 10
Column name: Acquity CSHC18
Retention time: 1.843 min
Base peak: 186.01610
Precursor m/z: 186.01610
Precursor type: [M+H]+
m/z	relative intensity
88.0395	999
186.0161	368
