Mass spectrum: N-ACETYLTRYPTOPHAN; LC-ESI-QFT; MS2; CE: 30eV;  [M+H]+
Name: N-ACETYLTRYPTOPHAN
Class: NA
Formula: C13H14N2O3
Exact mass: 246.10044
SMILES: CC(=O)N[C@@H](CC1=CNC2=C1C=CC=C2)C(O)=O
InChI: InChI=1S/C13H14N2O3/c1-8(16)15-12(13(17)18)6-9-7-14-11-5-3-2-4-10(9)11/h2-5,7,12,14H,6H2,1H3,(H,15,16)(H,17,18)/t12-/m0/s1
Instrument: Q-Exactive Orbitrap, Thermo Scientfic; Ultimate 3000 HPLC, Thermo Scientfic
Instrument type: LC-ESI-QFT
Ms type: MS2
Ion mode: POSITIVE
Ionization: ESI
Collision energy: 30eV
Column name: Acquity CSHC18
Retention time: 6.857 min
Base peak: 247.1077
Precursor m/z: 247.1077
Precursor type: [M+H]+
Precursor intensity: 193
m/z	relative intensity
50.8636	1
53.6281	1
54.1317	1
63.0127	2
73.4287	1
74.0242	2
76.4539	1
79.6401	1
81.8291	1
88.0399	18
93.5939	1
101.8757	1
103.4492	1
112.0399	2
114.6031	1
115.0543	2
115.3322	1
117.0574	1
118.0655	13
130.0501	8
130.0654	293
131.0688	10
132.0811	58
133.0841	1
142.0651	3
143.0728	2
144.081	21
146.0603	131
147.0635	3
147.9861	2
156.0811	3
158.06	2
158.0839	4
159.0919	999
160.076	31
160.0895	3
160.0953	32
169.0765	16
170.0603	94
174.0916	11
183.0919	26
184.0759	48
187.0869	164
189.0743	61
201.1026	733
202.106	35
205.0975	150
206.1009	3
211.0872	22
227.5318	1
229.0975	31
230.0819	14
242.7893	1
247.1074	6
257.7349	1
