Mass spectrum: dGDP; LC-ESI-QTOF; MS2; CE: -10, -35, -60V;  [M-H]-
Name: dGDP
Class: NA
Formula: C10H15N5O10P2
Exact mass: 427.0294
SMILES: C1C(C(OC1N2C=NC3=C2NC(=NC3=O)N)COP(=O)(O)OP(=O)(O)O)O
InChI: InChI=1S/C10H15N5O10P2/c11-10-13-8-7(9(17)14-10)12-3-15(8)6-1-4(16)5(24-6)2-23-27(21,22)25-26(18,19)20/h3-6,16H,1-2H2,(H,21,22)(H2,18,19,20)(H3,11,13,14,17)
Instrument: TripleToF 5600; Sciex
Instrument type: LC-ESI-QTOF
Ms type: MS2
Ion mode: NEGATIVE
Ionization: ESI
Collision energy: -10, -35, -60V
Column name: Acquity CSHC18
Retention time: 12.405 min
Base peak: 426.0237
Precursor m/z: 426.0237
Precursor type: [M-H]-
Precursor intensity: 95827
m/z	relative intensity
78.9591	999
158.9257	571
256.957	26
274.9719	42
408.0162	153
426.0243	615
