Mass spectrum: CREATINE; LC-ESI-QTOF; MS2; CE: 20;  [M+H]+
Name: CREATINE
Class: NA
Formula: C4H9N3O2
Exact mass: 131.0695
SMILES: CN(CC(O)=O)C(N)=N
InChI: InChI=1S/C4H9N3O2/c1-7(4(5)6)2-3(8)9/h2H2,1H3,(H3,5,6)(H,8,9)
Instrument: Agilent 6530Â Q-TOF LC/MS
Instrument type: LC-ESI-QTOF
Ms type: MS2
Ion mode: POSITIVE
Ionization: ESI
Collision energy: 20
Column name: NA
Retention time: 0.200 min
Base peak: 132.07745
Precursor m/z: 132.07745
Precursor type: [M+H]+
Precursor intensity: 44.5
m/z	relative intensity
43.0297	14
44.0497	21
58.0524	99
62.9286	116
90.0547	122
90.9011	999
