Mass spectrum: Resveratrol; LC-ESI-ITFT; MS2; CE: 30;  [M-H]-
Name: Resveratrol
Class: Phenylpropanoids and polyketides; Stilbenes
Formula: C14H12O3
Exact mass: 228.07864
SMILES: OC1=CC=C(\C=C\C2=CC(O)=CC(O)=C2)C=C1
InChI: InChI=1S/C14H12O3/c15-12-5-3-10(4-6-12)1-2-11-7-13(16)9-14(17)8-11/h1-9,15-17H/b2-1+
Instrument: Thermo Scientific Q-Exactive Focus
Instrument type: LC-ESI-ITFT
Ms type: MS2
Ion mode: NEGATIVE
Ionization: ESI
Collision energy: 30
Column name: Acquity CSHC18
Retention time: 0.928 min
Base peak: 227.07137
Precursor m/z: 227.07137
Precursor type: [M-H]-
m/z	relative intensity
102.9876	468
115.0542	49
117.0335	78
126.9039	55
130.9826	214
143.0492	999
157.0651	46
182.0729	47
185.06	171
208.9757	49
