Mass spectrum: N-Alpha-acetyllysine; ESI-TOF; MS2; CE: 0.6458333;  [M+H]+
Name: N-Alpha-acetyllysine
Class: NA
Formula: C8H16N2O3
Exact mass: 188.11609
SMILES: CC(=O)NC(CCCCN)C(O)=O
InChI: InChI=1S/C8H16N2O3/c1-6(11)10-7(8(12)13)4-2-3-5-9/h7H,2-5,9H2,1H3,(H,10,11)(H,12,13)
Instrument: waters xevo g2 TOF
Instrument type: ESI-TOF
Ms type: MS2
Ion mode: POSITIVE
Ionization: ESI
Collision energy: 0.6458333
Column name: Acquity CSHC18
Retention time: 0.532 min
Base peak: 189.12409
Precursor m/z: 189.12409
Precursor type: [M+H]+
m/z	relative intensity
67.0553	153
85.0846	151
101.1082	62
102.092	87
111.092	70
112.0763	162
126.0919	363
129.1027	999
132.9606	2
143.997	16
147.1134	315
148.1165	2
153.1027	140
154.0877	2
158.0029	2
171.1133	61
172.0975	79
173.1007	2
178.1242	2
189.1239	557
190.1269	35
191.1291	2
194.119	2
198.0457	64
199.0549	26
211.1062	37
258.1717	2
288.0417	2
288.0459	2
377.2406	2
399.2211	2
415.1837	23
430.1516	41
431.1606	2
453.1359	32
618.2664	39
619.2728	2
806.3817	2
807.3929	2
