Mass spectrum: TRYPTAMINE; LC-ESI-QFT; MS2; CE: 30eV;  [M+H]+
Name: TRYPTAMINE
Class: NA
Formula: C10H12N2
Exact mass: 160.10005
SMILES: NCCC1=CNC2=CC=CC=C12
InChI: InChI=1S/C10H12N2/c11-6-5-8-7-12-10-4-2-1-3-9(8)10/h1-4,7,12H,5-6,11H2
Instrument: Q-Exactive Orbitrap, Thermo Scientfic; Ultimate 3000 HPLC, Thermo Scientfic
Instrument type: LC-ESI-QFT
Ms type: MS2
Ion mode: POSITIVE
Ionization: ESI
Collision energy: 30eV
Column name: Acquity CSHC18
Retention time: 3.417 min
Base peak: 161.1073
Precursor m/z: 161.1073
Precursor type: [M+H]+
Precursor intensity: 165
m/z	relative intensity
51.0192	5
51.137	4
53.3445	4
53.6244	4
54.9607	5
56.943	12
58.9433	10
62.2541	5
62.8547	5
68.624	5
71.8211	6
72.9377	9
77.0387	5
77.4101	5
90.9482	26
91.0546	27
92.7402	7
93.9802	7
97.9693	10
99.9698	6
113.9641	246
114.9639	77
114.9675	58
114.9718	12
115.0545	37
115.718	6
116.9723	112
117.0574	6
117.0703	64
117.9801	541
131.9743	110
132.0811	25
132.9745	12
132.9783	31
133.065	12
135.9903	7
136.9536	10
142.9624	7
143.0731	63
145.0783	35
145.0842	999
155.0605	9
159.9696	24
160.1699	6
160.9728	10
161.0961	35
161.1075	40
161.9698	40
181.7957	6
