Mass spectrum: Glutathione; ESI-TOF; MS2; CE: 0.6458333;  [M+H]+
Name: Glutathione
Class: NA
Formula: C10H17N3O6S
Exact mass: 307.08381
SMILES: NC(CCC(=O)NC(CS)C(=O)NCC(O)=O)C(O)=O
InChI: InChI=1S/C10H17N3O6S/c11-5(10(18)19)1-2-7(14)13-6(4-20)9(17)12-3-8(15)16/h5-6,20H,1-4,11H2,(H,12,17)(H,13,14)(H,15,16)(H,18,19)
Instrument: waters xevo g2 TOF
Instrument type: ESI-TOF
Ms type: MS2
Ion mode: POSITIVE
Ionization: ESI
Collision energy: 0.6458333
Column name: Acquity CSHC18
Retention time: 0.595 min
Base peak: 308.09181
Precursor m/z: 308.09181
Precursor type: [M+H]+
m/z	relative intensity
76.0222	999
76.0225	784
84.0454	97
116.0172	491
130.0088	4
130.0089	4
130.0504	186
130.0506	118
135.9929	4
138.9906	4
138.9907	4
138.9908	4
142.0325	79
144.0123	123
162.0226	471
162.0227	4
173.9795	4
173.9803	4
179.0493	178
179.0496	78
180.0515	4
181.0474	4
215.0486	4
233.0594	4
233.0599	4
245.0603	4
245.0611	4
290.0802	4
291.0643	4
291.0659	12
308.0914	61
308.0916	4
309.0944	4
310.0908	4
310.0914	4
