Mass spectrum: Formononetin; LC-ESI-ITFT; MS2; CE: 30;  [M+H]+
Name: Formononetin
Class: Phenylpropanoids and polyketides; Isoflavonoids; O-methylated isoflavonoids
Formula: C16H12O4
Exact mass: 268.07356
SMILES: COC1=CC=C(C=C1)C1=COC2=C(C=CC(O)=C2)C1=O
InChI: InChI=1S/C16H12O4/c1-19-12-5-2-10(3-6-12)14-9-20-15-8-11(17)4-7-13(15)16(14)18/h2-9,17H,1H3
Instrument: Thermo Scientific Q-Exactive Focus
Instrument type: LC-ESI-ITFT
Ms type: MS2
Ion mode: POSITIVE
Ionization: ESI
Collision energy: 30
Column name: Acquity CSHC18
Retention time: 0.914 min
Base peak: 269.08084
Precursor m/z: 269.08084
Precursor type: [M+H]+
m/z	relative intensity
107.0493	192
118.0414	444
197.0595	327
198.0674	183
213.0908	735
226.0621	645
237.0542	681
253.0492	678
254.057	588
269.0804	999
