Mass spectrum: Hypotaurine; LC-ESI-ITFT; MS2; CE: 40;  [M+H]+
Name: Hypotaurine
Class: Organic acids and derivatives; Sulfinic acids and derivatives; Sulfinic acids
Formula: C2H7NO2S
Exact mass: 109.01975
SMILES: NCCS(O)=O
InChI: InChI=1S/C2H7NO2S/c3-1-2-6(4)5/h1-3H2,(H,4,5)
Instrument: Thermo Scientific Q-Exactive Focus
Instrument type: LC-ESI-ITFT
Ms type: MS2
Ion mode: POSITIVE
Ionization: ESI
Collision energy: 40
Column name: Acquity CSHC18
Retention time: 1.222 min
Base peak: 110.02703
Precursor m/z: 110.02703
Precursor type: [M+H]+
m/z	relative intensity
53.5636	489
55.9349	490
72.9376	999
75.1497	465
81.3879	528
83.9359	539
86.334	488
88.0231	482
90.5947	462
125.3286	492
