Mass spectrum: Quercetin-3-glucoside; LC-ESI-QTOF; MS2; CE: 27.23;  [M-H]-
Name: Quercetin-3-glucoside
Class: NA
Formula: C21H20O12
Exact mass: 464.0955
SMILES: C1=CC(=C(C=C1C2=C(C(=O)C3=C(C=C(C=C3O2)O)O)OC4C(C(C(C(O4)CO)O)O)O)O)O
InChI: InChI=1S/C21H20O12/c22-6-13-15(27)17(29)18(30)21(32-13)33-20-16(28)14-11(26)4-8(23)5-12(14)31-19(20)7-1-2-9(24)10(25)3-7/h1-5,13,15,17-18,21-27,29-30H,6H2
Instrument: Bruker MicrOTOF-Q
Instrument type: LC-ESI-QTOF
Ms type: MS2
Ion mode: NEGATIVE
Ionization: ESI
Collision energy: 27.23
Column name: Acquity CSHC18
Retention time: NA
Base peak: 463.0882
Precursor m/z: 463.0882
Precursor type: [M-H]-
m/z	relative intensity
255.03	127
271.03	257
300.03	999
301.03	427
