Mass spectrum: S4:21(2,4,5,10); LC-ESI-QTOF; MS2; CE: -10,-35,-60V;  [M+FA-H]-
Name: S4:21(2,4,5,10)
Class: acyl sugar
Formula: C33H56O15
Exact mass: 692.3619
SMILES: CC(O[C@@H]2[C@H](O[C@]1(O[C@@H](CO)[C@H](O)[C@H]1OC(CCCCCCC(C)C)=O)CO)O[C@@H](CO)[C@@H]([C@H]2OC(C(C)C)=O)OC(CC(C)C)=O)=O
InChI: InChI=1S/C33H56O15/c1-18(2)12-10-8-9-11-13-24(38)45-30-26(40)22(15-34)47-33(30,17-36)48-32-29(42-21(7)37)28(46-31(41)20(5)6)27(23(16-35)43-32)44-25(39)14-19(3)4/h18-20,22-23,26-30,32,34-36,40H,8-17H2,1-7H3/t22-,23-,26-,27-,28+,29-,30+,32-,33+/m0/s1
Instrument: TripleToF5600, Sciex; Acquity, Waters
Instrument type: LC-ESI-QTOF
Ms type: MS2
Ion mode: NEGATIVE
Ionization: ESI
Collision energy: -10,-35,-60V
Column name: Acquity CSHC18
Retention time: 14.332 min
Base peak: 737.3475
Precursor m/z: 737.3475
Precursor type: [M+FA-H]-
Precursor intensity: 9621346
m/z	relative intensity
87.0278	266
735.0286	999
