Mass spectrum: myo-Inositol; LC-ESI-ITFT; MS2; CE: 60;  [M-H]-
Name: myo-Inositol
Class: Organic oxygen compounds; Organooxygen compounds; Alcohols and polyols
Formula: C6H12O6
Exact mass: 180.06339
SMILES: O[C@H]1[C@H](O)[C@@H](O)[C@H](O)[C@H](O)[C@@H]1O
InChI: InChI=1S/C6H12O6/c7-1-2(8)4(10)6(12)5(11)3(1)9/h1-12H/t1-,2-,3-,4+,5-,6-
Instrument: Thermo Scientific Q-Exactive Focus
Instrument type: LC-ESI-ITFT
Ms type: MS2
Ion mode: NEGATIVE
Ionization: ESI
Collision energy: 60
Column name: Acquity CSHC18
Retention time: 1.762 min
Base peak: 179.05611
Precursor m/z: 179.05611
Precursor type: [M-H]-
m/z	relative intensity
55.0178	562
92.6837	510
94.9919	999
105.477	488
141.877	525
147.9239	526
158.8424	567
170.1863	505
175.8145	485
184.9802	511
