Mass spectrum: 1-lauroyl-2-hydroxy-sn-glycero-3-phosphocholine; ESI-TOF; MS2; CE: 0.6458333;  [M+H]+
Name: 1-lauroyl-2-hydroxy-sn-glycero-3-phosphocholine
Class: NA
Formula: C20H42NO7P
Exact mass: 439.26989
SMILES: [H]OC([H])(C([H])([H])OC(=O)C([H])([H])C([H])([H])C([H])([H])C([H])([H])C([H])([H])C([H])([H])C([H])([H])C([H])([H])C([H])([H])C([H])([H])C([H])([H])[H])C([H])([H])OP(=O)([O-])OC([H])([H])C([H])([H])[N+](C([H])([H])[H])(C([H])([H])[H])C([H])([H])[H]
InChI: InChI=1S/C20H42NO7P/c1-5-6-7-8-9-10-11-12-13-14-20(23)26-17-19(22)18-28-29(24,25)27-16-15-21(2,3)4/h19,22H,5-18H2,1-4H3
Instrument: waters xevo g2 TOF
Instrument type: ESI-TOF
Ms type: MS2
Ion mode: POSITIVE
Ionization: ESI
Collision energy: 0.6458333
Column name: Acquity CSHC18
Retention time: 4.497 min
Base peak: 440.27789
Precursor m/z: 440.27789
Precursor type: [M+H]+
m/z	relative intensity
86.097	60
87.1004	5
95.0857	7
104.1078	999
105.1109	65
106.1133	3
109.1016	3
112.9919	8
118.9208	4
120.5198	10
125.0008	44
129.5254	12
136.9324	8
138.5305	2
146.9825	18
148.533	11
157.5384	6
162.982	11
166.0637	17
181.0258	7
183.1758	9
184.0742	603
185.0777	75
186.0792	12
192.9589	3
222.0214	3
227.2016	3
236.9852	3
237.9935	4
239.6168	1
240.1089	5
257.2127	86
258.1635	14
282.0069	3
363.1934	27
364.1979	3
375.1264	6
403.1853	91
404.189	18
419.1515	3
422.2335	106
423.2702	48
424.2715	7
429.7128	4
430.2157	3
437.1625	3
438.1709	4
440.2244	229
441.2813	101
