Mass spectrum: L-Arabinose; ESI-TOF; MS2; CE: 6.0000000;  [M+H]+
Name: L-Arabinose
Class: NA
Formula: C5H10O5
Exact mass: 150.05282
SMILES: OC1COC(O)C(O)C1O
InChI: InChI=1S/C5H10O5/c6-2-1-10-5(9)4(8)3(2)7/h2-9H,1H2
Instrument: waters xevo g2 TOF
Instrument type: ESI-TOF
Ms type: MS2
Ion mode: POSITIVE
Ionization: ESI
Collision energy: 6.0000000
Column name: Acquity CSHC18
Retention time: 0.560 min
Base peak: 151.06082
Precursor m/z: 151.06082
Precursor type: [M+H]+
m/z	relative intensity
98.9754	4
101.9404	8
110.9764	4
113.964	4
129.0514	55
163.978	50
169.9677	4
173.0423	891
174.9677	4
185.9613	137
186.9744	73
203.9727	255
204.9798	94
235.0135	100
245.9822	82
261.9971	56
263.9932	999
264.997	117
287.8915	48
354.022	65
365.1065	4
