Mass spectrum: 15-cyclohexyl pentanor Prostaglandin F2-alpha; ESI-TOF; MS2; CE: 0.6458333;  [M+H]+
Name: 15-cyclohexyl pentanor Prostaglandin F2-alpha
Class: NA
Formula: C21H34O5
Exact mass: 366.24062
SMILES: O[C@@H]1[C@H](C/C=C\CCCC(O)=O)[C@@H](/C=C/[C@@H](O)C2CCCCC2)[C@H](O)C1
InChI: InChI=1S/C21H34O5/c22-18(15-8-4-3-5-9-15)13-12-17-16(19(23)14-20(17)24)10-6-1-2-7-11-21(25)26/h1,6,12-13,15-20,22-24H,2-5,7-11,14H2,(H,25,26)/b6-1-,13-12+/t16-,17-,18-,19+,20-/m1/s1
Instrument: waters xevo g2 TOF
Instrument type: ESI-TOF
Ms type: MS2
Ion mode: POSITIVE
Ionization: ESI
Collision energy: 0.6458333
Column name: Acquity CSHC18
Retention time: 3.664 min
Base peak: 367.24862
Precursor m/z: 367.24862
Precursor type: [M+H]+
m/z	relative intensity
81.0699	174
91.0558	122
95.0859	193
105.0713	220
107.0871	125
109.1011	74
119.0872	186
121.0613	186
129.0708	272
131.0863	344
133.101	166
135.1184	110
143.0878	193
145.1018	380
146.1062	31
147.1166	116
156.0922	21
157.1009	220
159.1176	147
167.0717	35
169.0997	107
171.117	379
173.0976	44
175.1314	39
182.0064	44
183.1162	56
185.0097	62
195.1022	100
199.1121	106
203.1058	35
205.1205	39
209.1394	37
211.1505	65
217.1245	130
223.1481	28
241.193	31
249.1727	23
253.1986	40
295.2055	269
313.2167	710
314.2174	111
330.1287	237
331.1342	51
343.1583	999
344.1604	181
359.129	624
360.1346	130
361.1319	121
367.1394	24
369.1723	74
