Mass spectrum: FOLATE; LC-ESI-QFT; MS2; CE: 30eV;  [M-H]-
Name: FOLATE
Class: NA
Formula: C19H19N7O6
Exact mass: 441.13968
SMILES: NC1=NC(=O)C2=NC(CNC3=CC=C(C=C3)C(=O)N[C@@H](CCC(O)=O)C(O)=O)=CN=C2N1
InChI: InChI=1S/C19H19N7O6/c20-19-25-15-14(17(30)26-19)23-11(8-22-15)7-21-10-3-1-9(2-4-10)16(29)24-12(18(31)32)5-6-13(27)28/h1-4,8,12,21H,5-7H2,(H,24,29)(H,27,28)(H,31,32)(H3,20,22,25,26,30)/t12-/m0/s1
Instrument: Q-Exactive Orbitrap, Thermo Scientfic; Ultimate 3000 HPLC, Thermo Scientfic
Instrument type: LC-ESI-QFT
Ms type: MS2
Ion mode: NEGATIVE
Ionization: ESI
Collision energy: 30eV
Column name: Acquity CSHC18
Retention time: 5.983 min
Base peak: 440.1324
Precursor m/z: 440.1324
Precursor type: [M-H]-
Precursor intensity: 107
m/z	relative intensity
51.1561	18
52.7926	17
58.7724	19
61.3695	18
62.1885	22
64.0801	23
89.8846	24
96.5476	21
98.2711	27
100.6484	24
128.0338	207
135.0931	24
163.0704	24
175.0487	258
195.8101	27
203.0812	28
208.3856	24
220.0847	131
221.093	102
265.0829	43
267.099	38
268.0849	28
293.0789	238
311.0898	999
312.0928	38
326.1271	36
353.137	181
378.1325	145
390.1213	25
396.1425	576
397.1469	44
422.1226	110
440.1323	380
448.7613	30
