Mass spectrum: uridine; LC-ESI-QTOF; MS2; CE: -10, -35, -60V;  [M-H]-
Name: uridine
Class: NA
Formula: C9H12N2O6
Exact mass: 244.0695
SMILES: C1=CN(C(=O)NC1=O)C2C(C(C(O2)CO)O)O
InChI: InChI=1S/C9H12N2O6/c12-3-4-6(14)7(15)8(17-4)11-2-1-5(13)10-9(11)16/h1-2,4,6-8,12,14-15H,3H2,(H,10,13,16)
Instrument: TripleToF 5600; Sciex
Instrument type: LC-ESI-QTOF
Ms type: MS2
Ion mode: NEGATIVE
Ionization: ESI
Collision energy: -10, -35, -60V
Column name: Acquity CSHC18
Retention time: 0.770 min
Base peak: 243.0656
Precursor m/z: 243.0656
Precursor type: [M-H]-
Precursor intensity: 183972.3
m/z	relative intensity
66.0388	31
82.0308	107
94.0278	15
110.0199	254
110.0259	254
129.9344	7
130.9615	10
140.0326	70
140.0393	71
145.9747	18
147.9513	19
152.0384	175
153.034	132
164.0349	6
182.9552	6
187.9631	7
189.9619	100
196.9716	19
199.424	7
200.0605	561
201.0641	86
243.0676	999
