Mass spectrum: N-Acetyl-L-phenylalanine; ESI-TOF; MS2; CE: 6.0000000;  [M+H]+
Name: N-Acetyl-L-phenylalanine
Class: NA
Formula: C11H13NO3
Exact mass: 207.08954
SMILES: CC(=O)NC(CC1=CC=CC=C1)C(O)=O
InChI: InChI=1S/C11H13NO3/c1-8(13)12-10(11(14)15)7-9-5-3-2-4-6-9/h2-6,10H,7H2,1H3,(H,12,13)(H,14,15)
Instrument: waters xevo g2 TOF
Instrument type: ESI-TOF
Ms type: MS2
Ion mode: POSITIVE
Ionization: ESI
Collision energy: 6.0000000
Column name: Acquity CSHC18
Retention time: 2.275 min
Base peak: 208.09754
Precursor m/z: 208.09754
Precursor type: [M+H]+
m/z	relative intensity
103.0546	3
112.0481	1
120.1266	521
121.0844	29
122.0876	4
126.5496	1
129.0188	3
131.0498	10
135.0811	4
135.5549	1
137.9879	13
138.9912	1
147.0632	1
148.0759	5
149.0601	17
154.9908	3
162.0524	184
163.0947	6
164.0981	3
166.0866	999
167.0471	59
168.0921	1
169.0056	6
172.9774	8
174.0847	2
175.0503	2
190.0591	51
191.0901	13
195.1019	1
199.0968	22
208.0974	485
209.1005	70
210.1023	7
214.1053	4
217.0194	4
218.0681	31
220.0285	3
230.0793	365
231.0824	51
232.0843	5
236.0788	2
245.0601	2
246.0473	1
249.0451	1
252.0604	1
258.0462	2
261.0533	1
263.0247	3
278.0649	1
287.0707	4
288.0295	1
292.0504	1
293.0353	5
302.0578	1
303.0431	1
308.0212	1
310.0881	1
318.0385	1
319.0311	2
415.1872	2
421.1945	1
437.1631	22
438.1679	3
439.1436	5
440.1491	2
453.2355	19
454.1362	9
455.163	3
460.6152	3
461.1201	1
464.0979	1
466.1012	3
467.1087	2
468.0991	42
469.1039	34
470.108	8
471.1068	13
472.1082	3
473.101	5
474.1027	1
644.2558	2
645.261	1
646.2385	1
660.2228	27
661.225	10
662.2254	2
673.1905	1
675.172	12
676.1896	11
677.1933	3
678.1956	4
679.1976	1
680.1912	1
682.201	1
697.1675	1
698.1721	1
920.2294	1
921.2253	1
926.2402	2
936.1933	1
