Mass spectrum: pinoresinol; LC-ESI-ITFT; MS2; CE: 0.3;  [M+H]+
Name: pinoresinol
Class: lignans
Formula: C20H22O6
Exact mass: 358.1416
SMILES: COC1=C(C=CC(=C1)C2C3COC(C3CO2)C4=CC(=C(C=C4)O)OC)O
InChI: InChI=1S/C20H22O6/c1-23-17-7-11(3-5-15(17)21)19-13-9-26-20(14(13)10-25-19)12-4-6-16(22)18(8-12)24-2/h3-8,13-14,19-22H,9-10H2,1-2H3
Instrument: LTQ-Orbitrap XL hybrid mass spectrometer (Thermo Scientific)
Instrument type: LC-ESI-ITFT
Ms type: MS2
Ion mode: POSITIVE
Ionization: ESI
Collision energy: 0.3
Column name: Acquity CSHC18
Retention time: 9.266 min
Base peak: 359.1500
Precursor m/z: 359.1500
Precursor type: [M+H]+
Precursor intensity: 816119.8
m/z	relative intensity
90.3484	24
95.1656	24
102.7102	26
103.1821	27
103.1867	43
104.3533	32
104.488	28
114.8329	25
145.4385	21
161.2216	37
161.226	45
161.2298	60
167.6844	30
179.0706	98
194.5011	22
196.2066	64
196.2147	51
286.6131	30
286.6231	57
286.6327	58
309.1121	33
323.1289	210
323.7823	27
328.1263	26
329.1392	34
335.8661	27
341.1395	999
351.5989	18
