Mass spectrum: alkannin; LC-ESI-ITFT; MS2; CE: 0.3;  [M-H]-
Name: alkannin
Class: naphthoquinone derivatives
Formula: C16H16O5
Exact mass: 288.0998
SMILES: CC(=CCC(C1=CC(=O)C2=C(C=CC(=C2C1=O)O)O)O)C
InChI: InChI=1S/C16H16O5/c1-8(2)3-4-10(17)9-7-13(20)14-11(18)5-6-12(19)15(14)16(9)21/h3,5-7,10,17-19H,4H2,1-2H3
Instrument: LTQ-Orbitrap XL hybrid mass spectrometer (Thermo Scientific)
Instrument type: LC-ESI-ITFT
Ms type: MS2
Ion mode: NEGATIVE
Ionization: ESI
Collision energy: 0.3
Column name: Acquity CSHC18
Retention time: 13.315 min
Base peak: 287.0925
Precursor m/z: 287.0925
Precursor type: [M-H]-
Precursor intensity: 17474940
m/z	relative intensity
65.1956	3
66.272	3
66.8624	4
71.7982	6
71.8007	10
74.8392	3
75.0139	3
84.5055	4
91.7125	3
107.972	3
174.9489	3
196.042	3
196.1221	12
216.6283	5
218.0065	10
218.0221	999
218.9593	5
219.43	6
232.9246	13
287.1934	6
287.2033	18
