Mass spectrum: Gamma-Glutamylcysteine; ESI-TOF; MS2; CE: 0.6458333;  [M+H]+
Name: Gamma-Glutamylcysteine
Class: NA
Formula: C8H14N2O5S
Exact mass: 250.06234
SMILES: NC(CCC(=O)NC(CS)C(O)=O)C(O)=O
InChI: InChI=1S/C8H14N2O5S/c9-4(7(12)13)1-2-6(11)10-5(3-16)8(14)15/h4-5,16H,1-3,9H2,(H,10,11)(H,12,13)(H,14,15)
Instrument: waters xevo g2 TOF
Instrument type: ESI-TOF
Ms type: MS2
Ion mode: POSITIVE
Ionization: ESI
Collision energy: 0.6458333
Column name: Acquity CSHC18
Retention time: 0.722 min
Base peak: 251.07034
Precursor m/z: 251.07034
Precursor type: [M+H]+
m/z	relative intensity
76.0217	68
84.0451	999
122.0274	256
130.0501	483
138.9903	5
142.0321	212
188.0377	5
234.044	5
234.0443	5
251.0704	5
