Mass spectrum: Norepinephrine; LC-ESI-ITFT; MS2; CE: 10;  [M+H]+
Name: Norepinephrine
Class: Benzenoids; Phenols; Benzenediols
Formula: C8H11NO3
Exact mass: 169.07389
SMILES: NC[C@H](O)C1=CC(O)=C(O)C=C1
InChI: InChI=1S/C8H11NO3/c9-4-8(12)5-1-2-6(10)7(11)3-5/h1-3,8,10-12H,4,9H2/t8-/m0/s1
Instrument: Thermo Scientific Q-Exactive Focus
Instrument type: LC-ESI-ITFT
Ms type: MS2
Ion mode: POSITIVE
Ionization: ESI
Collision energy: 10
Column name: Acquity CSHC18
Retention time: 0.348 min
Base peak: 170.08118
Precursor m/z: 170.08118
Precursor type: [M+H]+
m/z	relative intensity
79.0547	5
106.0654	32
107.0494	128
109.0287	11
128.9509	5
134.0601	42
135.0441	256
146.9613	4
152.0707	999
170.0964	5
