Mass spectrum: 1-palmitoyl-2-oleoyl-sn-glycero-3-phosphoethanolamine; ESI-TOF; MS2; CE: 0.6458333;  [M+H]+
Name: 1-palmitoyl-2-oleoyl-sn-glycero-3-phosphoethanolamine
Class: NA
Formula: C39H76NO8P
Exact mass: 717.53086
SMILES: [H]C(=C([H])C([H])([H])C([H])([H])C([H])([H])C([H])([H])C([H])([H])C([H])([H])C([H])([H])C([H])([H])[H])C([H])([H])C([H])([H])C([H])([H])C([H])([H])C([H])([H])C([H])([H])C([H])([H])C(=O)OC([H])(C([H])([H])OC(=O)C([H])([H])C([H])([H])C([H])([H])C([H])([H])C([H])([H])C([H])([H])C([H])([H])C([H])([H])C([H])([H])C([H])([H])C([H])([H])C([H])([H])C([H])([H])C([H])([H])C([H])([H])[H])C([H])([H])OP(=O)([O-])OC([H])([H])C([H])([H])[N+]([H])([H])[H]
InChI: InChI=1S/C39H76NO8P/c1-3-5-7-9-11-13-15-17-18-20-22-24-26-28-30-32-39(42)48-37(36-47-49(43,44)46-34-33-40)35-45-38(41)31-29-27-25-23-21-19-16-14-12-10-8-6-4-2/h17-18,37H,3-16,19-36,40H2,1-2H3,(H,43,44)
Instrument: waters xevo g2 TOF
Instrument type: ESI-TOF
Ms type: MS2
Ion mode: POSITIVE
Ionization: ESI
Collision energy: 0.6458333
Column name: Acquity CSHC18
Retention time: 11.213 min
Base peak: 718.53886
Precursor m/z: 718.53886
Precursor type: [M+H]+
m/z	relative intensity
109.1017	3
164.0088	3
192.958	5
239.237	12
265.2527	6
308.2935	3
339.2895	5
397.7188	1
431.1868	10
432.1912	2
457.2032	14
458.2062	2
551.5029	32
552.5108	12
563.5025	3
566.4291	1
577.5193	999
578.5225	419
579.5269	94
580.5287	5
599.5	2
603.5358	48
604.537	21
605.5432	4
687.4262	3
713.4428	18
714.4455	9
718.5381	157
719.542	70
