Mass spectrum: Hippuric acid; LC-ESI-ITFT; MS2; CE: 30;  [M-H]-
Name: Hippuric acid
Class: Benzenoids; Benzene and substituted derivatives; Benzoic acids and derivatives
Formula: C9H9NO3
Exact mass: 179.05824
SMILES: OC(=O)CNC(=O)C1=CC=CC=C1
InChI: InChI=1S/C9H9NO3/c11-8(12)6-10-9(13)7-4-2-1-3-5-7/h1-5H,6H2,(H,10,13)(H,11,12)
Instrument: Thermo Scientific Q-Exactive Focus
Instrument type: LC-ESI-ITFT
Ms type: MS2
Ion mode: NEGATIVE
Ionization: ESI
Collision energy: 30
Column name: Acquity CSHC18
Retention time: 0.925 min
Base peak: 178.05096
Precursor m/z: 178.05096
Precursor type: [M-H]-
m/z	relative intensity
76.2665	573
84.9136	629
87.2285	587
98.2267	618
105.7235	530
105.983	564
130.618	530
132.0443	999
152.5196	520
171.6568	563
