Mass spectrum: HCH-salicortin; LC-ESI-ITFT; MS2; CE: 20/50eV;  [M-H]-
Name: HCH-salicortin
Class: Salicinoid
Formula: C27H30O13
Exact mass: 562.1686
SMILES: O=C1CCC=CC1(O)C(OCC2=CC=CC=C2OC3C(O)C(O)C(O)C(COC(C4(O)C(CCC=C4)=O)=O)O3)=O
InChI: InChI=1S/C27H30O13/c28-18-9-3-5-11-26(18,35)24(33)37-13-15-7-1-2-8-16(15)39-23-22(32)21(31)20(30)17(40-23)14-38-25(34)27(36)12-6-4-10-19(27)29/h1-2,5-8,11-12,17,20-23,30-32,35-36H,3-4,9-10,13-14H2
Instrument: Bruker timsTOF
Instrument type: LC-ESI-ITFT
Ms type: MS2
Ion mode: NEGATIVE
Ionization: ESI
Collision energy: 20/50eV
Column name: Acquity CSHC18
Retention time: 6.674 min
Base peak: 561.1605
Precursor m/z: 561.1605
Precursor type: [M-H]-
Precursor intensity: 9048.94
m/z	relative intensity
109.0299	212
121.0286	212
123.045	777
124.0455	231
155.0385	231
156.037	222
161.0452	231
173.0472	249
267.0871	249
423.1767	203
425.1414	259
477.1001	203
561.1611	999
