Mass spectrum: beta-Alanine; LC-ESI-ITFT; MS2; CE: 60;  [M+H]+
Name: beta-Alanine
Class: Organic acids and derivatives; Carboxylic acids and derivatives; Amino acids, peptides, and analogues
Formula: C3H7NO2
Exact mass: 89.04768
SMILES: NCCC(O)=O
InChI: InChI=1S/C3H7NO2/c4-2-1-3(5)6/h1-2,4H2,(H,5,6)
Instrument: Thermo Scientific Q-Exactive Focus
Instrument type: LC-ESI-ITFT
Ms type: MS2
Ion mode: POSITIVE
Ionization: ESI
Collision energy: 60
Column name: Acquity CSHC18
Retention time: 1.816 min
Base peak: 90.05496
Precursor m/z: 90.05496
Precursor type: [M+H]+
m/z	relative intensity
51.094	870
52.9795	941
58.6789	811
59.9121	841
60.2492	936
89.4071	917
91.5873	999
91.9096	872
105.9889	836
107.3733	918
