Mass spectrum: 1-METHYL-L-HISTIDINE; LC-ESI-QTOF; MS2; CE: 40;  [M+H]+
Name: 1-METHYL-L-HISTIDINE
Class: NA
Formula: C7H11N3O2
Exact mass: 169.0851
SMILES: CN1C=NC(C[C@H](N)C(O)=O)=C1
InChI: InChI=1S/C7H11N3O2/c1-10-3-5(9-4-10)2-6(8)7(11)12/h3-4,6H,2,8H2,1H3,(H,11,12)/t6-/m0/s1
Instrument: Agilent 6530Â Q-TOF LC/MS
Instrument type: LC-ESI-QTOF
Ms type: MS2
Ion mode: POSITIVE
Ionization: ESI
Collision energy: 40
Column name: NA
Retention time: 0.200 min
Base peak: 170.09341
Precursor m/z: 170.09341
Precursor type: [M+H]+
Precursor intensity: 38.5
m/z	relative intensity
41.0404	48
42.0352	56
54.0346	88
55.0547	91
56.0503	126
66.0332	130
68.05	132
69.0457	167
80.0507	192
81.0468	325
82.0533	335
83.0618	341
96.0704	461
97.0784	999
