Mass spectrum: GERANYL-PP; LC-ESI-QTOF; MS2; CE: 40;  [M-H]-
Name: GERANYL-PP
Class: NA
Formula: C10H20O7P2
Exact mass: 314.06843
SMILES: CC(C)=CCC\C(C)=C\COP(O)(=O)OP(O)(O)=O
InChI: InChI=1S/C10H20O7P2/c1-9(2)5-4-6-10(3)7-8-16-19(14,15)17-18(11,12)13/h5,7H,4,6,8H2,1-3H3,(H,14,15)(H2,11,12,13)/b10-7+
Instrument: Agilent 6530Â Q-TOF LC/MS
Instrument type: LC-ESI-QTOF
Ms type: MS2
Ion mode: NEGATIVE
Ionization: ESI
Collision energy: 40
Column name: NA
Retention time: 0.200 min
Base peak: 313.05627
Precursor m/z: 313.05627
Precursor type: [M-H]-
Precursor intensity: 188
m/z	relative intensity
78.9792	999
