Mass spectrum: N-ACETYLSERINE; LC-ESI-QTOF; MS2; CE: 10;  [M+H]+
Name: N-ACETYLSERINE
Class: NA
Formula: C5H9NO4
Exact mass: 147.05316
SMILES: CC(=O)N[C@@H](CO)C(O)=O
InChI: InChI=1S/C5H9NO4/c1-3(8)6-4(2-7)5(9)10/h4,7H,2H2,1H3,(H,6,8)(H,9,10)/t4-/m0/s1
Instrument: Agilent 6530Â Q-TOF LC/MS
Instrument type: LC-ESI-QTOF
Ms type: MS2
Ion mode: POSITIVE
Ionization: ESI
Collision energy: 10
Column name: NA
Retention time: 0.200 min
Base peak: 148.06060
Precursor m/z: 148.06060
Precursor type: [M+H]+
Precursor intensity: 124.5
m/z	relative intensity
42.0381	81
43.0285	96
56.0515	105
60.0662	117
64.9243	157
70.0361	182
88.0462	192
102.0526	250
106.0688	361
130.0559	651
148.085	999
