Mass spectrum: CoenzymeA; LC-ESI-QTOF; MS2; CE: 100;  [M+H]+
Name: CoenzymeA
Class: Coenzyme A and derivatives
Formula: C21H36N7O16P3S
Exact mass: 767.11521
SMILES: CC(C)(COP(O)(=O)OP(O)(=O)OC[C@H]1O[C@H]([C@H](O)[C@@H]1OP(O)(O)=O)N1C=NC2=C1N=CN=C2N)[C@@H](O)C(=O)NCCC(=O)NCCS
InChI: InChI=1S/C21H36N7O16P3S/c1-21(2,16(31)19(32)24-4-3-12(29)23-5-6-48)8-41-47(38,39)44-46(36,37)40-7-11-15(43-45(33,34)35)14(30)20(42-11)28-10-27-13-17(22)25-9-26-18(13)28/h9-11,14-16,20,30-31,48H,3-8H2,1-2H3,(H,23,29)(H,24,32)(H,36,37)(H,38,39)(H2,22,25,26)(H2,33,34,35)/t11-,14-,15-,16+,20-/m1/s1
Instrument: impact II
Instrument type: LC-ESI-QTOF
Ms type: MS2
Ion mode: POSITIVE
Ionization: ESI
Collision energy: 100
Column name: Acquity CSHC18
Retention time: 1.799 min
Base peak: 768.12310
Precursor m/z: 768.12310
Precursor type: [M+H]+
m/z	relative intensity
61.0113	101
72.045	154
88.0218	173
113.0596	337
132.0477	384
136.0618	437
142.0862	999
