Mass spectrum: Hippuric acid; LC-ESI-ITFT; MS2; CE: 20;  [M+H]+
Name: Hippuric acid
Class: Benzenoids; Benzene and substituted derivatives; Benzoic acids and derivatives
Formula: C9H9NO3
Exact mass: 179.05824
SMILES: OC(=O)CNC(=O)C1=CC=CC=C1
InChI: InChI=1S/C9H9NO3/c11-8(12)6-10-9(13)7-4-2-1-3-5-7/h1-5H,6H2,(H,10,13)(H,11,12)
Instrument: Thermo Scientific Q-Exactive Focus
Instrument type: LC-ESI-ITFT
Ms type: MS2
Ion mode: POSITIVE
Ionization: ESI
Collision energy: 20
Column name: Acquity CSHC18
Retention time: 0.511 min
Base peak: 180.06552
Precursor m/z: 180.06552
Precursor type: [M+H]+
m/z	relative intensity
51.0235	3
53.0391	50
56.9653	69
77.039	14
81.0338	2
92.5244	2
95.0494	135
97.9915	1
105.0337	999
105.0449	25
