Mass spectrum: Neoabietic acid; LC-ESI-QTOF; MS2; CE: 15.24;  [M+H]+
Name: Neoabietic acid
Class: NA
Formula: C20H30O2
Exact mass: 302.2246
SMILES: CC(=C1CCC2C(=C1)CCC3C2(CCCC3(C)C(=O)O)C)C
InChI: InChI=1S/C20H30O2/c1-13(2)14-6-8-16-15(12-14)7-9-17-19(16,3)10-5-11-20(17,4)18(21)22/h12,16-17H,5-11H2,1-4H3,(H,21,22)
Instrument: Bruker MicrOTOF-Q
Instrument type: LC-ESI-QTOF
Ms type: MS2
Ion mode: POSITIVE
Ionization: ESI
Collision energy: 15.24
Column name: Acquity CSHC18
Retention time: NA
Base peak: 303.2319
Precursor m/z: 303.2319
Precursor type: [M+H]+
m/z	relative intensity
121.0991	25
123.115	32
133.0994	34
135.1153	35
137.1309	35
139.11	36
147.1158	38
149.1313	40
150.1348	42
159.1164	46
161.1313	46
163.1481	55
167.1063	56
173.1327	57
175.1473	59
179.1067	67
187.1479	68
193.1217	73
201.1632	74
202.1663	76
205.122	77
215.1782	81
219.138	92
229.1641	92
247.1686	133
255.2108	135
256.2135	141
257.2259	167
258.2294	185
267.21	230
285.2203	232
286.224	275
302.2207	361
303.2308	634
304.2344	999
