Mass spectrum: Quercetin-5,3'-dimethylether-3-glucosid; LC-ESI-QTOF; MS2; CE: 50eV;  [M+H]+
Name: Quercetin-5,3'-dimethylether-3-glucosid
Class: Flavonol
Formula: C23H24O12
Exact mass: 492.1268
SMILES: OC1=CC2=C(C(C(OC3[C@@H](O)[C@@H](O)[C@H](O)[C@H](CO)O3)=C(C4=CC(OC)=C(O)C=C4)O2)=O)C(OC)=C1
InChI: InChI=1S/C23H24O12/c1-31-12-5-9(3-4-11(12)26)21-22(35-23-20(30)19(29)17(27)15(8-24)34-23)18(28)16-13(32-2)6-10(25)7-14(16)33-21/h3-7,15,17,19-20,23-27,29-30H,8H2,1-2H3/t15-,17+,19-,20-,23?/m0/s1
Instrument: TIMS-TOF Pro, Bruker Daltonik; Elute UHPLC System, Bruker Daltonik
Instrument type: LC-ESI-QTOF
Ms type: MS2
Ion mode: POSITIVE
Ionization: ESI
Collision energy: 50eV
Column name: Acquity CSHC18
Retention time: 5.205 min
Base peak: 493.1309
Precursor m/z: 493.1309
Precursor type: [M+H]+
Precursor intensity: 5534.56
m/z	relative intensity
201.6924	9
269.0463	14
316.0512	49
331.0476	40
331.0793	999
332.0818	139
333.0888	10
333.8131	9
416.0253	9
