Mass spectrum: PYRIDOXAMINE; LC-ESI-QFT; MS2; CE: 30eV;  [M+H]+
Name: PYRIDOXAMINE
Class: NA
Formula: C8H12N2O2
Exact mass: 168.08988
SMILES: CC1=C(O)C(CN)=C(CO)C=N1
InChI: InChI=1S/C8H12N2O2/c1-5-8(12)7(2-9)6(4-11)3-10-5/h3,11-12H,2,4,9H2,1H3
Instrument: Q-Exactive Orbitrap, Thermo Scientfic; Ultimate 3000 HPLC, Thermo Scientfic
Instrument type: LC-ESI-QFT
Ms type: MS2
Ion mode: POSITIVE
Ionization: ESI
Collision energy: 30eV
Column name: Acquity CSHC18
Retention time: 0.533 min
Base peak: 169.0972
Precursor m/z: 169.0972
Precursor type: [M+H]+
Precursor intensity: 126
m/z	relative intensity
51.1975	2
52.8736	2
54.175	2
56.1051	3
56.5316	2
65.0393	5
69.204	2
74.0833	3
76.921	3
79.055	17
80.0503	4
80.2618	2
81.0581	4
82.066	4
83.0498	2
94.0657	4
95.0499	7
96.0815	19
105.0454	3
105.4725	3
106.0657	64
106.9167	2
107.0862	8
109.102	3
114.9437	4
123.0683	4
124.0762	72
134.0605	999
135.0636	47
146.9826	5
151.0871	504
151.1121	7
153.0742	782
170.1011	117
172.1032	3
