Mass spectrum: Gentisic acid; LC-ESI-ITFT; MS2; CE: 100;  [M-H]-
Name: Gentisic acid
Class: Benzenoids; Benzene and substituted derivatives; Benzoic acids and derivatives
Formula: C7H6O4
Exact mass: 154.02661
SMILES: OC(=O)C1=C(O)C=CC(O)=C1
InChI: InChI=1S/C7H6O4/c8-4-1-2-6(9)5(3-4)7(10)11/h1-3,8-9H,(H,10,11)
Instrument: Thermo Scientific Q-Exactive Focus
Instrument type: LC-ESI-ITFT
Ms type: MS2
Ion mode: NEGATIVE
Ionization: ESI
Collision energy: 100
Column name: Acquity CSHC18
Retention time: NA
Base peak: 153.01933
Precursor m/z: 153.01933
Precursor type: [M-H]-
m/z	relative intensity
92.5134	999
93.4484	555
93.7045	582
99.0054	570
100.454	575
103.5766	560
118.1018	650
120.7523	666
128.7127	565
169.9521	649
