Mass spectrum: 11-deoxy-11-methylene Prostaglandin D2; ESI-TOF; MS2; CE: 0.6458333;  [M+H]+
Name: 11-deoxy-11-methylene Prostaglandin D2
Class: NA
Formula: C21H34O4
Exact mass: 350.24571
SMILES: CCCCCC(O)/C=C/[C@H]1C(=C)CC(O)C1C/C=C\CCCC(=O)O
InChI: InChI=1S/C21H34O4/c1-3-4-7-10-17(22)13-14-18-16(2)15-20(23)19(18)11-8-5-6-9-12-21(24)25/h5,8,13-14,17-20,22-23H,2-4,6-7,9-12,15H2,1H3,(H,24,25)/b8-5-,14-13+/t17?,18-,19?,20?/m0/s1
Instrument: waters xevo g2 TOF
Instrument type: ESI-TOF
Ms type: MS2
Ion mode: POSITIVE
Ionization: ESI
Collision energy: 0.6458333
Column name: Acquity CSHC18
Retention time: 4.103 min
Base peak: 351.25371
Precursor m/z: 351.25371
Precursor type: [M+H]+
m/z	relative intensity
83.0846	28
94.0749	37
119.0868	395
131.0867	999
144.0935	57
145.1024	734
146.1054	72
158.1064	66
160.1225	31
163.1495	128
165.0208	39
167.0975	128
181.1025	320
186.1078	29
187.1486	315
188.1538	60
195.1121	217
199.1128	409
203.1766	79
209.1337	271
211.1483	69
213.1279	240
217.1195	78
221.1534	72
223.1497	150
235.1686	49
255.2097	198
279.2117	470
280.2237	76
289.2162	281
290.2217	55
297.2215	460
313.2161	73
315.2319	105
316.2368	337
337.1984	32
353.1781	299
