Mass spectrum: Xanthine; LC-ESI-ITFT; MS2; CE: 10;  [M+H]+
Name: Xanthine
Class: Organoheterocyclic compounds; Imidazopyrimidines; Purines and purine derivatives
Formula: C5H4N4O2
Exact mass: 152.03343
SMILES: O=C1NC2=C(NC=N2)C(=O)N1
InChI: InChI=1S/C5H4N4O2/c10-4-2-3(7-1-6-2)8-5(11)9-4/h1H,(H3,6,7,8,9,10,11)
Instrument: Thermo Scientific Q-Exactive Focus
Instrument type: LC-ESI-ITFT
Ms type: MS2
Ion mode: POSITIVE
Ionization: ESI
Collision energy: 10
Column name: Acquity CSHC18
Retention time: 0.348 min
Base peak: 153.04070
Precursor m/z: 153.04070
Precursor type: [M+H]+
m/z	relative intensity
55.0296	7
100.5103	27
109.5155	7
110.0351	219
112.0182	9
128.0456	35
133.0596	19
136.0142	16
153.0408	999
154.0247	259
