Mass spectrum: UDP; LC-ESI-QTOF; MS2; CE: 10;  [M+NH4]+
Name: UDP
Class: Pyrimidine ribonucleoside diphosphates
Formula: C9H14N2O12P2
Exact mass: 404.00220
SMILES: O[C@H]1[C@@H](O)[C@@H](O[C@@H]1COP(O)(=O)OP(O)(O)=O)N1C=CC(=O)NC1=O
InChI: InChI=1S/C9H14N2O12P2/c12-5-1-2-11(9(15)10-5)8-7(14)6(13)4(22-8)3-21-25(19,20)23-24(16,17)18/h1-2,4,6-8,13-14H,3H2,(H,19,20)(H,10,12,15)(H2,16,17,18)/t4-,6-,7-,8-/m1/s1
Instrument: impact II
Instrument type: LC-ESI-QTOF
Ms type: MS2
Ion mode: POSITIVE
Ionization: ESI
Collision energy: 10
Column name: Acquity CSHC18
Retention time: 1.558 min
Base peak: 422.03620
Precursor m/z: 422.03620
Precursor type: [M+NH4]+
m/z	relative intensity
171.1374	103
405.0093	999
406.0128	101
424.364	134
