Mass spectrum: Epinephrine; LC-ESI-ITFT; MS2; CE: 100;  [M+H]+
Name: Epinephrine
Class: Benzenoids; Phenols; Benzenediols
Formula: C9H13NO3
Exact mass: 183.08954
SMILES: CNC[C@H](O)C1=CC(O)=C(O)C=C1
InChI: InChI=1S/C9H13NO3/c1-10-5-9(13)6-2-3-7(11)8(12)4-6/h2-4,9-13H,5H2,1H3/t9-/m0/s1
Instrument: Thermo Scientific Q-Exactive Focus
Instrument type: LC-ESI-ITFT
Ms type: MS2
Ion mode: POSITIVE
Ionization: ESI
Collision energy: 100
Column name: Acquity CSHC18
Retention time: 2.570 min
Base peak: 184.09682
Precursor m/z: 184.09682
Precursor type: [M+H]+
m/z	relative intensity
50.0157	973
51.0235	999
53.0028	191
61.0079	51
62.0157	211
63.0235	275
65.0027	26
65.0391	28
89.039	24
196.1255	20
