Mass spectrum: Ursolic acid; LC-ESI-QFT; MS2; CE: 15,30,45 (NCE);  [M+H]+
Name: Ursolic acid
Class: NA
Formula: C30H48O3
Exact mass: 456.3603
SMILES: CC1CCC2(CCC3(C)C(=CCC4C5(C)CCC(O)C(C)(C)C5CCC34C)C2C1C)C(O)=O
InChI: InChI=1S/C30H48O3/c1-18-10-15-30(25(32)33)17-16-28(6)20(24(30)19(18)2)8-9-22-27(5)13-12-23(31)26(3,4)21(27)11-14-29(22,28)7/h8,18-19,21-24,31H,9-17H2,1-7H3,(H,32,33)
Instrument: QE Focus, Thermo Scientfic; UPLC I-Class, Waters
Instrument type: LC-ESI-QFT
Ms type: MS2
Ion mode: POSITIVE
Ionization: ESI
Collision energy: 15,30,45 (NCE)
Column name: Acquity CSHC18
Retention time: 5.594 min
Base peak: 457.3683
Precursor m/z: 457.3683
Precursor type: [M+H]+
Precursor intensity: 11731110
m/z	relative intensity
81.0705	22
93.0703	43
95.086	43
105.0703	45
107.0858	48
109.1015	49
119.0856	53
121.1013	53
123.117	65
133.1011	70
135.1167	71
147.1168	74
149.1325	75
161.1327	81
163.1481	86
175.1481	89
177.1637	100
187.1477	100
189.1636	109
191.1795	113
201.1638	115
203.1792	149
205.1946	159
207.1741	187
217.1943	190
229.1944	197
231.2109	199
297.2572	210
315.2672	230
393.3505	280
411.3615	347
439.3564	350
457.3678	999
