Mass spectrum: 1a,1b-dihomo Prostaglandin F2-alpha; ESI-TOF; MS2; CE: 0.6458333;  [M+H]+
Name: 1a,1b-dihomo Prostaglandin F2-alpha
Class: NA
Formula: C22H38O5
Exact mass: 382.27192
SMILES: O[C@@H]1[C@H](C/C=C\CCCCCC(O)=O)[C@@H](/C=C/[C@@H](O)CCCCC)[C@H](O)C1
InChI: InChI=1S/C22H38O5/c1-2-3-8-11-17(23)14-15-19-18(20(24)16-21(19)25)12-9-6-4-5-7-10-13-22(26)27/h6,9,14-15,17-21,23-25H,2-5,7-8,10-13,16H2,1H3,(H,26,27)/b9-6-,15-14+/t17-,18+,19+,20-,21+/m0/s1
Instrument: waters xevo g2 TOF
Instrument type: ESI-TOF
Ms type: MS2
Ion mode: POSITIVE
Ionization: ESI
Collision energy: 0.6458333
Column name: Acquity CSHC18
Retention time: 4.087 min
Base peak: 383.27992
Precursor m/z: 383.27992
Precursor type: [M+H]+
m/z	relative intensity
67.0534	78
69.0699	74
79.0541	90
81.0705	232
83.0849	58
91.0544	115
93.0708	209
95.0865	211
98.9607	26
105.0706	295
106.0745	23
107.0861	140
109.1011	97
117.0712	312
119.0658	300
121.1024	113
123.1213	24
128.0643	24
129.0707	297
131.0866	737
133.1022	191
135.1174	78
141.0708	52
143.085	282
145.101	471
147.1174	102
149.1309	55
155.0852	76
157.1027	181
159.1168	178
161.1319	85
169.103	112
171.1183	164
173.1331	96
175.1135	18
181.1043	42
183.1167	105
185.1337	69
186.125	18
187.1484	145
189.1633	58
199.1485	113
201.1637	94
202.1666	20
203.1814	46
209.1442	23
210.0306	64
211.1474	40
213.1468	64
227.1592	43
231.1707	53
233.1539	45
245.1539	49
269.222	21
285.2196	22
301.2162	18
303.2302	155
304.2362	40
311.2362	125
319.2616	12
329.2476	999
330.2499	189
331.2612	90
333.2473	23
342.1664	88
345.2434	28
346.1579	156
347.2074	73
359.1891	935
360.1939	96
367.1911	52
374.1552	222
375.1621	904
376.1631	140
377.1724	47
385.227	19
