Mass spectrum: L-Asparagine; ESI-TOF; MS2; CE: 0.6458333;  [M+H]+
Name: L-Asparagine
Class: NA
Formula: C4H8N2O3
Exact mass: 132.05349
SMILES: NC(CC(N)=O)C(O)=O
InChI: InChI=1S/C4H8N2O3/c5-2(4(8)9)1-3(6)7/h2H,1,5H2,(H2,6,7)(H,8,9)
Instrument: waters xevo g2 TOF
Instrument type: ESI-TOF
Ms type: MS2
Ion mode: POSITIVE
Ionization: ESI
Collision energy: 0.6458333
Column name: Acquity CSHC18
Retention time: 0.516 min
Base peak: 133.06149
Precursor m/z: 133.06149
Precursor type: [M+H]+
m/z	relative intensity
74.0248	933
87.056	15
88.0395	15
95.9731	77
100.9732	270
106.9937	77
109.9931	180
116.0348	15
127.0189	164
130.0089	15
133.0613	617
134.065	15
137.9867	117
140.9632	15
141.9827	676
145.0173	15
146.9548	15
155.0429	15
160.9817	46
170.8657	89
173.8682	471
183.0081	294
187.9887	15
190.8734	80
191.941	15
199.004	186
202.0149	15
211.0044	453
217.8596	201
228.0305	999
246.8628	199
258.17	15
259.8887	15
264.8741	15
274.0363	171
303.0625	15
314.0338	15
316.0333	15
318.026	15
318.793	118
319.0314	15
450.0743	15
505.0029	204
636.0442	63
