Mass spectrum: beta-d-glucosyl indole-3-carboxylate; LC-ESI-QTOF; MS2; CE: 16.66;  [M-H]-
Name: beta-d-glucosyl indole-3-carboxylate
Class: NA
Formula: C15H17NO7
Exact mass: 323.1005
SMILES: C1=CC=C2C(=C1)C(=CN2)C(=O)OC3C(C(C(C(O3)CO)O)O)O
InChI: InChI=1S/C15H17NO7/c17-6-10-11(18)12(19)13(20)15(22-10)23-14(21)8-5-16-9-4-2-1-3-7(8)9/h1-5,10-13,15-20H,6H2
Instrument: Bruker MicrOTOF-Q
Instrument type: LC-ESI-QTOF
Ms type: MS2
Ion mode: NEGATIVE
Ionization: ESI
Collision energy: 16.66
Column name: Acquity CSHC18
Retention time: NA
Base peak: 322.0932
Precursor m/z: 322.0932
Precursor type: [M-H]-
m/z	relative intensity
46.6533	24
49.0274	45
51.3481	31
51.9322	23
57.3463	25
59.0103	34
59.8497	25
61.977	30
63.1515	19
64.0473	27
64.956	32
66.6593	22
68.6118	29
69.2796	27
70.4577	25
74.1417	18
77.6218	32
79.3471	26
79.8992	35
81.1714	28
82.4063	42
90.1977	38
96.9646	28
98.4348	39
101.0267	37
103.6349	39
112.959	137
115.859	167
117.0516	46
120.9957	37
125.02	38
131.5928	31
133.4007	27
134.4922	20
137.0937	42
142.0923	26
143.037	82
144.036	31
155.9765	17
157.9381	50
159.9958	515
161.0182	30
161.8008	43
168.2575	35
170.1175	42
172.0404	23
173.5728	38
175.0886	37
177.7961	26
178.4162	20
179.0533	58
181.2497	30
181.9814	29
186.1326	20
188.0475	31
188.9826	130
198.4575	33
202.2528	442
203.0557	376
203.5876	20
204.0528	32
215.1348	25
217.0767	24
223.0119	22
231.0448	21
231.9578	114
233.0657	34
234.092	28
237.0997	25
240.1803	30
249.8883	31
260.8257	22
262.072	999
262.8438	48
264.086	28
272.9813	31
276.3413	37
286.3317	23
316.0594	25
320.0652	63
321.1426	70
322.0518	200
323.0913	59
