Mass spectrum: LACTATE; LC-ESI-QTOF; MS2; CE: 40;  [M-H]-
Name: LACTATE
Class: NA
Formula: C3H6O3
Exact mass: 90.03169
SMILES: C[C@H](O)C(O)=O
InChI: InChI=1S/C3H6O3/c1-2(4)3(5)6/h2,4H,1H3,(H,5,6)/t2-/m0/s1
Instrument: Agilent 6530Â Q-TOF LC/MS
Instrument type: LC-ESI-QTOF
Ms type: MS2
Ion mode: NEGATIVE
Ionization: ESI
Collision energy: 40
Column name: NA
Retention time: 0.200 min
Base peak: 89.02588
Precursor m/z: 89.02588
Precursor type: [M-H]-
Precursor intensity: 183
m/z	relative intensity
69.6336	66
77.0771	66
79.4257	466
79.4308	999
79.4359	865
79.441	799
79.4462	532
79.4513	266
79.4564	133
