Mass spectrum: Pectolinarigenin; LC-ESI-QTOF; MS2; CE: 20-40eV;  [M+H]+
Name: Pectolinarigenin
Class: flavonoid
Formula: C17H14O6
Exact mass: 314.0790
SMILES: COC1=CC=C(C=C1)C2=CC(C3=C(C=C(C(=C3O)OC)O)O2)=O
InChI: InChI=1S/C17H14O6/c1-21-10-5-3-9(4-6-10)13-7-11(18)15-14(23-13)8-12(19)17(22-2)16(15)20/h3-8,19-20H,1-2H3
Instrument: Impact II, Bruker; Dionex 3000, Thermo Scientific
Instrument type: LC-ESI-QTOF
Ms type: MS2
Ion mode: POSITIVE
Ionization: ESI
Collision energy: 20-40eV
Column name: Acquity CSHC18
Retention time: 14.974 min
Base peak: 315.0854
Precursor m/z: 315.0854
Precursor type: [M+H]+
Precursor intensity: 3407.38
m/z	relative intensity
95.0115	38
95.086	39
126.9992	65
135.041	67
140.0066	51
143.993	36
145.0657	33
158.9264	35
161.131	39
168.0048	250
169.007	55
170.0129	56
219.2072	32
225.9645	32
300.0625	315
315.0838	999
