Mass spectrum: Pyroglutamic acid; LC-ESI-ITFT; MS2; CE: 40;  [M+H]+
Name: Pyroglutamic acid
Class: Organic acids and derivatives; Carboxylic acids and derivatives; Amino acids, peptides, and analogues
Formula: C5H7NO3
Exact mass: 129.04259
SMILES: OC(=O)[C@@H]1CCC(=O)N1
InChI: InChI=1S/C5H7NO3/c7-4-2-1-3(6-4)5(8)9/h3H,1-2H2,(H,6,7)(H,8,9)/t3-/m0/s1
Instrument: Thermo Scientific Q-Exactive Focus
Instrument type: LC-ESI-ITFT
Ms type: MS2
Ion mode: POSITIVE
Ionization: ESI
Collision energy: 40
Column name: Acquity CSHC18
Retention time: 1.463 min
Base peak: 130.04987
Precursor m/z: 130.04987
Precursor type: [M+H]+
m/z	relative intensity
55.935	107
56.0501	999
72.9376	196
82.4458	34
84.0448	295
90.948	88
102.044	36
120.8542	36
125.8424	36
129.2737	37
