Mass spectrum: Scopolamine; LC-ESI-QTOF; MS2; CE: 35eV;  [M+H]+
Name: Scopolamine
Class: Tropane_alkaloid
Formula: C17H21NO4
Exact mass: 303.1471
SMILES: CN1C2CC(CC1C3C2O3)OC(C(CO)C4=CC=CC=C4)=O
InChI: InChI=1S/C17H21NO4/c1-18-13-7-11(8-14(18)16-15(13)22-16)21-17(20)12(9-19)10-5-3-2-4-6-10/h2-6,11-16,19H,7-9H2,1H3
Instrument: maXis impact HD, Bruker; Dionex 3000, Thermo Scientific
Instrument type: LC-ESI-QTOF
Ms type: MS2
Ion mode: POSITIVE
Ionization: ESI
Collision energy: 35eV
Column name: Acquity CSHC18
Retention time: 5.109 min
Base peak: 304.1537
Precursor m/z: 304.1537
Precursor type: [M+H]+
Precursor intensity: 680133.5
m/z	relative intensity
91.0539	26
94.0646	30
96.044	32
97.0518	32
98.0594	37
104.0571	42
110.0957	45
120.0802	65
121.0641	71
122.0672	90
138.0907	160
139.0937	208
156.101	348
157.104	507
304.1529	999
