Mass spectrum: URIDINE DIPHOSPHATE-N-ACETYLGALACTOSAMINE; LC-ESI-QFT; MS2; CE: 30eV;  [M-H]-
Name: URIDINE DIPHOSPHATE-N-ACETYLGALACTOSAMINE
Class: NA
Formula: C17H27N3O17P2
Exact mass: 607.08157
SMILES: CC(=O)NC1C(O)C(O)C(CO)OC1OP(O)(=O)OP(O)(=O)OCC1OC(C(O)C1O)N1C=CC(=O)NC1=O
InChI: InChI=1S/C17H27N3O17P2/c1-6(22)18-10-13(26)11(24)7(4-21)35-16(10)36-39(31,32)37-38(29,30)33-5-8-12(25)14(27)15(34-8)20-3-2-9(23)19-17(20)28/h2-3,7-8,10-16,21,24-27H,4-5H2,1H3,(H,18,22)(H,29,30)(H,31,32)(H,19,23,28)
Instrument: Q-Exactive Orbitrap, Thermo Scientfic; Ultimate 3000 HPLC, Thermo Scientfic
Instrument type: LC-ESI-QFT
Ms type: MS2
Ion mode: NEGATIVE
Ionization: ESI
Collision energy: 30eV
Column name: Acquity CSHC18
Retention time: 0.615 min
Base peak: 606.0743
Precursor m/z: 606.0743
Precursor type: [M-H]-
Precursor intensity: 134
m/z	relative intensity
52.3957	6
54.0149	7
59.2244	6
74.9168	7
78.9575	864
79.4289	9
83.3753	7
88.4533	7
95.1365	8
95.5532	7
96.9681	408
101.031	8
111.0185	204
113.8919	8
138.9786	13
143.572	8
158.9242	603
162.9793	16
173.0961	8
174.979	85
176.9349	289
179.6588	9
192.99	10
194.1117	9
211.0006	39
212.639	8
219.9329	8
225.1971	7
246.0169	19
256.8117	9
260.9571	143
264.0277	109
272.9572	866
273.962	10
280.0221	13
282.0385	588
283.042	18
290.9678	36
298.9076	9
300.0491	160
305.018	187
323.0285	270
323.0467	14
343.9944	46
362.0049	227
363.0079	11
384.9845	999
385.9886	57
402.995	312
508.0972	15
526.1058	13
606.0743	118
