Mass spectrum: 13,14-dihydro Prostaglandin E1; ESI-TOF; MS2; CE: 6.0000000;  [M+H]+
Name: 13,14-dihydro Prostaglandin E1
Class: NA
Formula: C20H36O5
Exact mass: 356.25627
SMILES: CCCCC[C@H](O)CC[C@H]1[C@H](O)CC(=O)[C@@H]1CCCCCCC(O)=O
InChI: InChI=1S/C20H36O5/c1-2-3-6-9-15(21)12-13-17-16(18(22)14-19(17)23)10-7-4-5-8-11-20(24)25/h15-17,19,21,23H,2-14H2,1H3,(H,24,25)/t15-,16+,17+,19+/m0/s1
Instrument: waters xevo g2 TOF
Instrument type: ESI-TOF
Ms type: MS2
Ion mode: POSITIVE
Ionization: ESI
Collision energy: 6.0000000
Column name: Acquity CSHC18
Retention time: 3.701 min
Base peak: 357.26427
Precursor m/z: 357.26427
Precursor type: [M+H]+
m/z	relative intensity
147.1179	3
180.0979	11
205.1582	7
293.246	15
303.2325	999
304.2358	223
305.236	15
309.1999	7
321.1862	310
322.2471	135
323.2492	8
339.1717	44
340.2553	18
358.2264	59
358.728	27
