Mass spectrum: Picolinic acid; LC-ESI-ITFT; MS2; CE: 20;  [M+H]+
Name: Picolinic acid
Class: Organoheterocyclic compounds; Pyridines and derivatives; Pyridinecarboxylic acids and derivatives
Formula: C6H5NO2
Exact mass: 123.03203
SMILES: OC(=O)C1=CC=CC=N1
InChI: InChI=1S/C6H5NO2/c8-6(9)5-3-1-2-4-7-5/h1-4H,(H,8,9)
Instrument: Thermo Scientific Q-Exactive Focus
Instrument type: LC-ESI-ITFT
Ms type: MS2
Ion mode: POSITIVE
Ionization: ESI
Collision energy: 20
Column name: Acquity CSHC18
Retention time: 0.630 min
Base peak: 124.03930
Precursor m/z: 124.03930
Precursor type: [M+H]+
m/z	relative intensity
50.0157	6
51.0236	26
76.0471	1
78.0343	132
94.762	1
96.0448	999
103.7375	1
120.0129	1
121.8121	1
124.0395	43
