Mass spectrum: H-Ile-Leu-OH; LC-ESI-QTOF; MS2; CE: 29.05;  [2M-H]-
Name: H-Ile-Leu-OH
Class: NA
Formula: C12H24N2O3
Exact mass: 244.1787
SMILES: CCC(C)C(C(=O)NC(CC(C)C)C(=O)O)N
InChI: InChI=1S/C12H24N2O3/c1-5-8(4)10(13)11(15)14-9(12(16)17)6-7(2)3/h7-10H,5-6,13H2,1-4H3,(H,14,15)(H,16,17)
Instrument: Bruker MicrOTOF-Q
Instrument type: LC-ESI-QTOF
Ms type: MS2
Ion mode: NEGATIVE
Ionization: ESI
Collision energy: 29.05
Column name: Acquity CSHC18
Retention time: NA
Base peak: 487.3501
Precursor m/z: 487.3501
Precursor type: [2M-H]-
m/z	relative intensity
199.18	256
243.17	999
244.17	147
