Mass spectrum: Guanosine; LC-ESI-QTOF; MS2; CE: 15 / 50;  [M-H]-
Name: Guanosine
Class: NA
Formula: C10H13N5O5
Exact mass: 283.0917
SMILES: C1=NC2=C(N1C3C(C(C(O3)CO)O)O)N=C(NC2=O)N
InChI: InChI=1S/C10H13N5O5/c11-10-13-7-4(8(19)14-10)12-2-15(7)9-6(18)5(17)3(1-16)20-9/h2-3,5-6,9,16-18H,1H2,(H3,11,13,14,19)
Instrument: impact II
Instrument type: LC-ESI-QTOF
Ms type: MS2
Ion mode: NEGATIVE
Ionization: ESI
Collision energy: 15 / 50
Column name: Acquity CSHC18
Retention time: 0.706 min
Base peak: 282.0847
Precursor m/z: 282.0847
Precursor type: [M-H]-
m/z	relative intensity
108.0205	119
133.0159	226
150.0426	999
151.0452	134
282.0852	443
283.0876	114
