Mass spectrum: L-Proline; LC-ESI-QTOF; MS2; CE: 15.00;  [M+H]+
Name: L-Proline
Class: NA
Formula: C5H9NO2
Exact mass: 115.0633
SMILES: C1CC(NC1)C(=O)O
InChI: InChI=1S/C5H9NO2/c7-5(8)4-2-1-3-6-4/h4,6H,1-3H2,(H,7,8)
Instrument: Bruker MicrOTOF-Q
Instrument type: LC-ESI-QTOF
Ms type: MS2
Ion mode: POSITIVE
Ionization: ESI
Collision energy: 15.00
Column name: Acquity CSHC18
Retention time: NA
Base peak: 116.0706
Precursor m/z: 116.0706
Precursor type: [M+H]+
m/z	relative intensity
98.0627	10
115.9906	7
116.069	999
117.0741	34
119.955	9
