Mass spectrum: p-Hydroxyphenylacetic acid; LC-ESI-ITFT; MS2; CE: 20;  [M-H]-
Name: p-Hydroxyphenylacetic acid
Class: Benzenoids; Phenols; 1-hydroxy-2-unsubstituted benzenoids
Formula: C8H8O3
Exact mass: 152.04734
SMILES: OC(=O)CC1=CC=C(O)C=C1
InChI: InChI=1S/C8H8O3/c9-7-3-1-6(2-4-7)5-8(10)11/h1-4,9H,5H2,(H,10,11)
Instrument: Thermo Scientific Q-Exactive Focus
Instrument type: LC-ESI-ITFT
Ms type: MS2
Ion mode: NEGATIVE
Ionization: ESI
Collision energy: 20
Column name: Acquity CSHC18
Retention time: 0.648 min
Base peak: 151.04007
Precursor m/z: 151.04007
Precursor type: [M-H]-
m/z	relative intensity
63.002	62
79.0541	42
80.9639	39
93.0333	141
94.9559	38
95.049	105
106.0411	44
107.049	999
122.9506	71
123.044	254
