Mass spectrum: 1,3,8-Trihydroxy-6-methylanthraquinone; LC-ESI-QTOF; MS2; CE: 15;  [M-H]-
Name: 1,3,8-Trihydroxy-6-methylanthraquinone
Class: NA
Formula: C15H10O5
Exact mass: 270.0528
SMILES: CC1=CC2=C(C(=C1)O)C(=O)C3=C(C2=O)C=C(C=C3O)O
InChI: InChI=1S/C15H10O5/c1-6-2-8-12(10(17)3-6)15(20)13-9(14(8)19)4-7(16)5-11(13)18/h2-5,16-18H,1H3
Instrument: Bruker MicrOTOF-Q
Instrument type: LC-ESI-QTOF
Ms type: MS2
Ion mode: NEGATIVE
Ionization: ESI
Collision energy: 15
Column name: Acquity CSHC18
Retention time: NA
Base peak: 269.0455
Precursor m/z: 269.0455
Precursor type: [M-H]-
m/z	relative intensity
44.8902	5
46.8771	7
49.5108	6
50.9217	7
52.4471	7
56.2676	7
69.8337	7
83.7988	7
89.9006	6
91.46	5
93.7311	6
97.5224	6
104.2222	7
111.6042	7
118.0929	7
137.4198	7
159.1153	8
171.8406	8
217.2946	45
259.1954	8
260.0152	12
264.6664	25
274.6786	999
282.0542	7
284.1381	5
285.4579	4
286.0379	6
286.6521	5
287.2247	9
287.7888	5
288.6182	4
289.0619	7
289.8695	5
292.1505	9
294.3496	7
295.3945	5
296.194	5
296.8211	5
297.5923	9
298.6719	4
299.6538	6
301.5702	5
302.7729	5
303.6992	4
304.3101	6
305.007	4
305.5275	7
309.6044	4
310.9505	7
311.6668	6
315.0643	9
316.4541	7
320.5974	4
323.721	6
324.9124	7
326.518	4
328.7186	7
329.6245	8
330.6849	7
333.2172	6
335.9182	6
336.3437	9
337.2664	7
341.3682	6
342.8456	7
344.1726	8
345.6314	4
346.8486	6
351.9679	6
355.4956	8
356.2128	8
358.3365	7
360.6662	8
364.3821	7
366.0763	4
368.1073	7
368.64	6
369.2433	6
370.6735	5
372.5655	6
373.6953	5
374.1652	5
377.9453	6
378.8601	7
379.854	8
381.7254	5
393.3248	6
397.8594	7
400.2521	7
406.92	5
414.3899	8
418.9696	8
419.7939	7
420.9373	4
422.9504	5
424.7763	6
428.07	7
431.2374	6
435.6324	8
436.4986	8
437.1818	7
437.932	6
438.6911	5
446.7591	8
447.9055	7
448.5818	8
458.5585	10
459.4063	7
464.7051	5
471.1533	7
476.1104	7
478.5142	5
480.9332	7
490.2652	7
506.1145	7
523.689	5
530.3024	7
543.4407	10
544.4856	9
548.4419	6
558.4053	6
559.1313	5
565.1202	6
565.9844	7
573.4794	4
574.4026	6
592.4221	8
607.5678	4
608.1486	7
616.1478	5
621.4827	6
627.4075	9
646.2223	8
654.2689	8
699.6368	4
716.072	5
755.6932	4
760.3601	4
839.7487	4
864.0075	4
993.3558	6
