Mass spectrum: Glucosyl salicylate; LC-ESI-QTOF; MS2; CE: 50eV;  [M-H]-
Name: Glucosyl salicylate
Class: Benzoic acid derivative
Formula: C13H16O8
Exact mass: 300.0845
SMILES: C1=CC=C(C(=C1)C(=O)OC2C(C(C(C(O2)CO)O)O)O)O
InChI: InChI=1S/C13H16O8/c14-5-8-9(16)10(17)11(18)13(20-8)21-12(19)6-3-1-2-4-7(6)15/h1-4,8-11,13-18H,5H2
Instrument: TIMS-TOF Pro, Bruker Daltonik; Elute UHPLC System, Bruker Daltonik
Instrument type: LC-ESI-QTOF
Ms type: MS2
Ion mode: NEGATIVE
Ionization: ESI
Collision energy: 50eV
Column name: Acquity CSHC18
Retention time: 2.815 min
Base peak: 299.0784
Precursor m/z: 299.0784
Precursor type: [M-H]-
Precursor intensity: 343.89
m/z	relative intensity
19.0116	44
93.033	999
137.0236	273
