Mass spectrum: Tomentosin; LC-ESI-ITFT; MS2; CE: 50eV;  [M+H]+
Name: Tomentosin
Class: Sesquiterpenelactone; Xanthanolide
Formula: C15H20O3
Exact mass: 248.1412
SMILES: C[C@H]1C[C@@H]2[C@H](CC=C1CCC(=O)C)C(=C)C(=O)O2
InChI: InChI=1S/C15H20O3/c1-9-8-14-13(11(3)15(17)18-14)7-6-12(9)5-4-10(2)16/h6,9,13-14H,3-5,7-8H2,1-2H3/t9-,13+,14+/m0/s1
Instrument: Q Exactive Plus, ThermoFisher Scientific
Instrument type: LC-ESI-ITFT
Ms type: MS2
Ion mode: POSITIVE
Ionization: ESI
Collision energy: 50eV
Column name: Acquity CSHC18
Retention time: 9.184 min
Base peak: 249.1485
Precursor m/z: 249.1485
Precursor type: [M+H]+
Precursor intensity: 605123000
m/z	relative intensity
54.8879	76
62.2438	67
70.1134	349
103.259	67
105.0699	98
119.0859	134
125.2236	71
143.0861	143
145.1019	815
148.6387	89
157.1017	104
159.1174	326
173.0962	406
175.0764	137
185.1327	707
189.127	114
191.1061	314
203.1428	436
213.127	163
216.828	76
231.1386	999
249.1485	545
