Mass spectrum: Salicylic Acid 2-O-beta glucoside, 2-(D-glucosyloxy)benzoic acid; LC-ESI-QTOF; MS2; CE: 16.73;  [M+Na]+
Name: Salicylic Acid 2-O-beta glucoside, 2-(D-glucosyloxy)benzoic acid
Class: NA
Formula: C13H16O8
Exact mass: 300.0845
SMILES: C1=CC=C(C(=C1)C(=O)O)OC2C(C(C(C(O2)CO)O)O)O
InChI: InChI=1S/C13H16O8/c14-5-8-9(15)10(16)11(17)13(21-8)20-7-4-2-1-3-6(7)12(18)19/h1-4,8-11,13-17H,5H2,(H,18,19)
Instrument: Bruker MicrOTOF-Q
Instrument type: LC-ESI-QTOF
Ms type: MS2
Ion mode: POSITIVE
Ionization: ESI
Collision energy: 16.73
Column name: Acquity CSHC18
Retention time: NA
Base peak: 323.0737
Precursor m/z: 323.0737
Precursor type: [M+Na]+
m/z	relative intensity
97.0214	69
102.9781	63
109.0247	202
109.0697	67
109.1843	56
115.0368	143
117.059	58
127.035	742
141.0535	50
145.0489	999
161.022	407
162.027	45
163.0582	167
181.0403	54
185.0417	391
186.0447	100
203.0559	139
204.0779	65
205.0639	65
223.0138	195
230.8992	82
233.0379	45
234.9979	43
237.0318	67
247.0252	63
249.0311	213
251.0188	63
277.0269	409
305.0547	91
307.0384	124
323.0679	637
