Mass spectrum: 1-palmitoyl-2-hydroxy-sn-glycero-3-phosphocholine; ESI-TOF; MS2; CE: 0.6458333;  [M+H]+
Name: 1-palmitoyl-2-hydroxy-sn-glycero-3-phosphocholine
Class: NA
Formula: C24H50NO7P
Exact mass: 495.33249
SMILES: [H]OC([H])(C([H])([H])OC(=O)C([H])([H])C([H])([H])C([H])([H])C([H])([H])C([H])([H])C([H])([H])C([H])([H])C([H])([H])C([H])([H])C([H])([H])C([H])([H])C([H])([H])C([H])([H])C([H])([H])C([H])([H])[H])C([H])([H])OP(=O)([O-])OC([H])([H])C([H])([H])[N+](C([H])([H])[H])(C([H])([H])[H])C([H])([H])[H]
InChI: InChI=1S/C24H50NO7P/c1-5-6-7-8-9-10-11-12-13-14-15-16-17-18-24(27)30-21-23(26)22-32-33(28,29)31-20-19-25(2,3)4/h23,26H,5-22H2,1-4H3
Instrument: waters xevo g2 TOF
Instrument type: ESI-TOF
Ms type: MS2
Ion mode: POSITIVE
Ionization: ESI
Collision energy: 0.6458333
Column name: Acquity CSHC18
Retention time: 6.260 min
Base peak: 496.34049
Precursor m/z: 496.34049
Precursor type: [M+H]+
m/z	relative intensity
85.1018	2
86.0971	66
87.1003	5
102.092	2
104.1075	661
105.1105	79
106.1128	2
112.9912	10
118.9211	2
120.5195	5
125.0004	32
129.5245	3
136.9319	3
138.5303	2
146.982	10
148.5326	18
149.0328	2
157.5378	3
162.9701	7
166.0636	13
181.0267	4
184.0739	999
185.0771	64
186.0781	10
192.957	1
236.9828	2
237.9936	4
240.1	14
258.1116	27
258.6422	3
267.6484	3
282.0042	2
295.1954	32
296.1272	5
313.2736	47
314.2773	9
326.6019	1
419.2225	16
420.2594	4
431.1889	5
459.25	73
460.2534	17
476.7775	2
478.3061	105
479.3331	44
480.3354	13
482.7374	1
485.7769	7
493.2274	2
494.2319	4
496.4709	321
497.3438	96
