Mass spectrum: Apigenin-4'-glucoside; LC-ESI-QTOF; MS2; CE: 20-40eV;  [M+H]+
Name: Apigenin-4'-glucoside
Class: flavonoid
Formula: C21H20O10
Exact mass: 432.1056
SMILES: C=1C=C(C=CC1C2=CC(C3=C(C=C(C=C3O2)O)O)=O)OC4(C(C(C(C(CO)(O4)[H])(O)[H])(O)[H])(O)[H])[H]
InChI: InChI=1S/C21H20O10/c22-8-16-18(26)19(27)20(28)21(31-16)29-11-3-1-9(2-4-11)14-7-13(25)17-12(24)5-10(23)6-15(17)30-14/h1-7,16,18-24,26-28H,8H2
Instrument: Impact II, Bruker; Dionex 3000, Thermo Scientific
Instrument type: LC-ESI-QTOF
Ms type: MS2
Ion mode: POSITIVE
Ionization: ESI
Collision energy: 20-40eV
Column name: Acquity CSHC18
Retention time: 5.584 min
Base peak: 433.1121
Precursor m/z: 433.1121
Precursor type: [M+H]+
Precursor intensity: 9876.25
m/z	relative intensity
153.0176	45
163.0355	8
243.0661	5
245.0444	5
271.0595	999
272.0628	167
273.0731	50
274.0784	9
433.1113	11
