Mass spectrum: GLUCOSE 6-PHOSPHATE; LC-ESI-QTOF; MS2; CE: 20;  [M-H]-
Name: GLUCOSE 6-PHOSPHATE
Class: NA
Formula: C6H13O9P
Exact mass: 260.02972
SMILES: OC1O[C@H](COP(O)(O)=O)[C@@H](O)[C@H](O)[C@H]1O
InChI: InChI=1S/C6H13O9P/c7-3-2(1-14-16(11,12)13)15-6(10)5(9)4(3)8/h2-10H,1H2,(H2,11,12,13)/t2-,3-,4+,5-,6?/m1/s1
Instrument: Agilent 6530Â Q-TOF LC/MS
Instrument type: LC-ESI-QTOF
Ms type: MS2
Ion mode: NEGATIVE
Ionization: ESI
Collision energy: 20
Column name: NA
Retention time: 0.200 min
Base peak: 259.01982
Precursor m/z: 259.01982
Precursor type: [M-H]-
Precursor intensity: 158
m/z	relative intensity
78.9736	888
96.985	999
