Mass spectrum: 18:0(2R-OH) Ceramide; ESI-TOF; MS2; CE: 0.6458333;  [M+H]+
Name: 18:0(2R-OH) Ceramide
Class: NA
Formula: C36H71NO4
Exact mass: 581.53831
SMILES: [H]OC([H])([H])C([H])(N([H])C(=O)C([H])(O[H])C([H])([H])C([H])([H])C([H])([H])C([H])([H])C([H])([H])C([H])([H])C([H])([H])C([H])([H])C([H])([H])C([H])([H])C([H])([H])C([H])([H])C([H])([H])C([H])([H])C([H])([H])C([H])([H])[H])C([H])(O[H])C([H])=C([H])C([H])([H])C([H])([H])C([H])([H])C([H])([H])C([H])([H])C([H])([H])C([H])([H])C([H])([H])C([H])([H])C([H])([H])C([H])([H])C([H])([H])C([H])([H])[H]
InChI: InChI=1S/C36H71NO4/c1-3-5-7-9-11-13-15-17-19-21-23-25-27-29-31-35(40)36(41)37-33(32-38)34(39)30-28-26-24-22-20-18-16-14-12-10-8-6-4-2/h28,30,33-35,38-40H,3-27,29,31-32H2,1-2H3,(H,37,41)
Instrument: waters xevo g2 TOF
Instrument type: ESI-TOF
Ms type: MS2
Ion mode: POSITIVE
Ionization: ESI
Collision energy: 0.6458333
Column name: Acquity CSHC18
Retention time: 11.066 min
Base peak: 582.54631
Precursor m/z: 582.54631
Precursor type: [M+H]+
m/z	relative intensity
55.0183	18
145.013	44
252.2694	49
264.2693	391
265.2718	76
282.2803	26
286.7392	24
293.2166	12
364.2524	18
534.527	26
538.3987	26
544.3738	12
546.5256	95
547.5293	40
559.3847	14
564.5357	150
565.5392	60
566.5435	9
582.5464	10
583.3849	9
583.5465	4
589.3862	22
601.5204	69
602.0212	52
602.523	17
604.5275	999
605.5319	404
606.5319	88
619.3358	21
666.4982	19
667.5025	10
892.2916	99
892.7917	121
893.2931	70
893.7972	35
1118.9315	2
1183.0575	18
1183.5625	31
1184.0648	25
1184.5672	14
1186.0682	191
1187.0712	158
1188.074	66
1189.0767	17
