Mass spectrum: Kynurenine; LC-ESI-QTOF; MS2; CE: 30;  [M+H]+
Name: Kynurenine
Class: NA
Formula: C10H12N2O3
Exact mass: 208.08479
SMILES: C1=CC=C(C(=C1)C(=O)CC(C(=O)O)N)N
InChI: InChI=1S/C10H12N2O3/c11-7-4-2-1-3-6(7)9(13)5-8(12)10(14)15/h1-4,8H,5,11-12H2,(H,14,15)
Instrument: impact II
Instrument type: LC-ESI-QTOF
Ms type: MS2
Ion mode: POSITIVE
Ionization: ESI
Collision energy: 30
Column name: Acquity CSHC18
Retention time: 1.787 min
Base peak: 209.09250
Precursor m/z: 209.09250
Precursor type: [M+H]+
m/z	relative intensity
74.0244	189
91.0544	179
94.0654	455
118.0652	815
120.0445	668
132.0445	343
136.0759	244
146.0601	999
147.0635	110
174.055	201
