Mass spectrum: Nandrolone; LC-ESI-QTOF; MS2; CE: 20;  [M+H]+
Name: Nandrolone
Class: NA
Formula: C18H26O2
Exact mass: 274.1933
SMILES: C[C@]12CC[C@H]3[C@H]([C@@H]1CC[C@@H]2O)CCC4=CC(=O)CC[C@H]34
InChI: InChI=1S/C18H26O2/c1-18-9-8-14-13-5-3-12(19)10-11(13)2-4-15(14)16(18)6-7-17(18)20/h10,13-17,20H,2-9H2,1H3/t13-,14+,15+,16-,17-,18-/m0/s1
Instrument: Agilent 6560Â Ion Mobility Q-TOF LC/MS
Instrument type: LC-ESI-QTOF
Ms type: MS2
Ion mode: POSITIVE
Ionization: ESI
Collision energy: 20
Column name: Acquity CSHC18
Retention time: 0.200 min
Base peak: 275.1997
Precursor m/z: 275.1997
Precursor type: [M+H]+
Precursor intensity: 11.5
m/z	relative intensity
79.0596	155
81.0751	156
83.0558	166
91.0581	196
93.0759	199
95.0904	200
98.9783	211
105.0746	218
107.0687	228
109.0805	230
117.0717	231
119.0887	240
121.1038	248
129.0726	254
131.0886	266
133.0906	271
135.1168	283
143.0879	285
145.1075	292
147.1201	300
149.1132	316
157.1057	336
159.1206	339
161.1119	346
163.1158	380
171.1184	392
183.1168	416
185.1379	450
187.1535	455
197.1387	467
199.1522	480
201.1291	494
213.1648	506
231.176	574
239.1851	585
257.196	817
275.2086	999
