Mass spectrum: Atripliciolide isobutyrate, 4, 15-iso; LC-ESI-ITFT; MS2; CE: 50eV;  [M+H]+
Name: Atripliciolide isobutyrate, 4, 15-iso
Class: Sesquiterpenelactone; Heliangolide
Formula: C19H22O6
Exact mass: 346.1416
SMILES: CC(C)C(=O)O[C@@H]3C[C@@]1(C)OC(=CC1=O)C(=C)C[C@@H]2OC(=O)C(=C)[C@@H]23
InChI: InChI=1S/C19H22O6/c1-9(2)17(21)24-14-8-19(5)15(20)7-12(25-19)10(3)6-13-16(14)11(4)18(22)23-13/h7,9,13-14,16H,3-4,6,8H2,1-2,5H3/t13-,14+,16-,19+/m0/s1
Instrument: Q Exactive Plus, ThermoFisher Scientific
Instrument type: LC-ESI-ITFT
Ms type: MS2
Ion mode: POSITIVE
Ionization: ESI
Collision energy: 50eV
Column name: Acquity CSHC18
Retention time: 6.858 min
Base peak: 347.1487
Precursor m/z: 347.1487
Precursor type: [M+H]+
Precursor intensity: 359089700
m/z	relative intensity
69.3465	8
71.05	68
95.0502	25
97.0288	2
111.0449	2
157.0649	2
161.06	11
163.0755	8
185.0592	9
185.0953	18
187.1128	4
203.0706	14
203.1061	15
213.0906	89
231.1009	56
241.0863	27
259.0952	90
277.1063	999
278.1106	12
347.1511	37
