Mass spectrum: Riboflavin 5'-phosphate; LC-ESI-QTOF; MS2; CE: 35.00;  [M-HO3P+H]+
Name: Riboflavin 5'-phosphate
Class: NA
Formula: C17H21N4O9P
Exact mass: 456.1046
SMILES: CC1=CC2=C(C=C1C)N(C3=NC(=O)NC(=O)C3=N2)CC(C(C(COP(=O)(O)O)O)O)O
InChI: InChI=1S/C17H21N4O9P/c1-7-3-9-10(4-8(7)2)21(15-13(18-9)16(25)20-17(26)19-15)5-11(22)14(24)12(23)6-30-31(27,28)29/h3-4,11-12,14,22-24H,5-6H2,1-2H3,(H,20,25,26)(H2,27,28,29)
Instrument: Bruker MicrOTOF-Q
Instrument type: LC-ESI-QTOF
Ms type: MS2
Ion mode: POSITIVE
Ionization: ESI
Collision energy: 35.00
Column name: Acquity CSHC18
Retention time: NA
Base peak: 377.1453
Precursor m/z: 377.1453
Precursor type: [M-HO3P+H]+
m/z	relative intensity
145.0747	49
157.0701	34
159.0916	15
170.0706	86
171.0774	28
172.0863	999
173.0883	137
182.0765	11
184.0865	16
186.1029	18
197.0925	51
198.0658	850
199.0708	108
200.0813	138
201.0857	12
209.0975	10
214.0979	25
216.0766	293
217.0785	33
224.1119	13
225.0765	25
226.0668	11
226.0888	20
243.0874	543
244.0883	78
245.092	11
