Mass spectrum: 1912-33-0; LC-ESI-QTOF; MS2; CE: -10, -35, -60V;  [M-H]-
Name: 1912-33-0
Class: NA
Formula: C11H11NO2
Exact mass: 189.0790
SMILES: COC(=O)CC1=CNC2=CC=CC=C21
InChI: InChI=1S/C11H11NO2/c1-14-11(13)6-8-7-12-10-5-3-2-4-9(8)10/h2-5,7,12H,6H2,1H3
Instrument: TripleToF 5600; Sciex
Instrument type: LC-ESI-QTOF
Ms type: MS2
Ion mode: NEGATIVE
Ionization: ESI
Collision energy: -10, -35, -60V
Column name: Acquity CSHC18
Retention time: 14.652 min
Base peak: 188.0708
Precursor m/z: 188.0708
Precursor type: [M-H]-
Precursor intensity: 12597.5
m/z	relative intensity
128.0483	57
130.0592	36
154.9463	44
174.1111	36
188.0725	999
