Mass spectrum: m-Aminobenzoic acid; ESI-TOF; MS2; CE: 0.6458333;  [M+H]+
Name: m-Aminobenzoic acid
Class: NA
Formula: C7H7NO2
Exact mass: 137.04768
SMILES: NC1=CC=CC(=C1)C(O)=O
InChI: InChI=1S/C7H7NO2/c8-6-3-1-2-5(4-6)7(9)10/h1-4H,8H2,(H,9,10)
Instrument: waters xevo g2 TOF
Instrument type: ESI-TOF
Ms type: MS2
Ion mode: POSITIVE
Ionization: ESI
Collision energy: 0.6458333
Column name: Acquity CSHC18
Retention time: 0.899 min
Base peak: 138.05568
Precursor m/z: 138.05568
Precursor type: [M+H]+
m/z	relative intensity
65.04	117
77.0396	414
92.0502	65
92.0506	138
93.0578	149
94.0657	218
94.0659	219
113.9641	14
113.9643	23
113.9645	19
120.045	58
120.0454	79
121.0287	163
138.0556	569
138.0557	999
139.0587	21
139.059	66
