Mass spectrum: L-Dopa; LC-ESI-ITFT; MS2; CE: 20;  [M+H]+
Name: L-Dopa
Class: Organic acids and derivatives; Carboxylic acids and derivatives; Amino acids, peptides, and analogues
Formula: C9H11NO4
Exact mass: 197.06881
SMILES: N[C@@H](CC1=CC(O)=C(O)C=C1)C(O)=O
InChI: InChI=1S/C9H11NO4/c10-6(9(13)14)3-5-1-2-7(11)8(12)4-5/h1-2,4,6,11-12H,3,10H2,(H,13,14)/t6-/m0/s1
Instrument: Thermo Scientific Q-Exactive Focus
Instrument type: LC-ESI-ITFT
Ms type: MS2
Ion mode: POSITIVE
Ionization: ESI
Collision energy: 20
Column name: Acquity CSHC18
Retention time: 0.634 min
Base peak: 198.07608
Precursor m/z: 198.07608
Precursor type: [M+H]+
m/z	relative intensity
91.0545	46
93.0338	71
106.0653	87
107.0493	550
111.0442	368
134.06	145
135.044	843
139.0389	665
152.0705	999
163.0388	93
