Mass spectrum: L-Norleucine; ESI-TOF; MS2; CE: 6.0000000;  [M+H]+
Name: L-Norleucine
Class: NA
Formula: C6H13NO2
Exact mass: 131.09463
SMILES: CCCCC(N)C(O)=O
InChI: InChI=1S/C6H13NO2/c1-2-3-4-5(7)6(8)9/h5H,2-4,7H2,1H3,(H,8,9)
Instrument: waters xevo g2 TOF
Instrument type: ESI-TOF
Ms type: MS2
Ion mode: POSITIVE
Ionization: ESI
Collision energy: 6.0000000
Column name: Acquity CSHC18
Retention time: 0.880 min
Base peak: 132.10263
Precursor m/z: 132.10263
Precursor type: [M+H]+
m/z	relative intensity
86.0974	248
86.0975	215
131.9512	34
131.9514	21
131.9516	45
132.1026	999
132.1029	715
133.106	71
133.1061	31
137.9884	436
149.9611	27
149.9616	42
149.962	45
191.0237	60
