Mass spectrum: Nicotinic acid; LC-ESI-ITFT; MS2; CE: 10;  [M+H]+
Name: Nicotinic acid
Class: Organoheterocyclic compounds; Pyridines and derivatives; Pyridinecarboxylic acids and derivatives
Formula: C6H5NO2
Exact mass: 123.03203
SMILES: OC(=O)C1=CN=CC=C1
InChI: InChI=1S/C6H5NO2/c8-6(9)5-2-1-3-7-4-5/h1-4H,(H,8,9)
Instrument: Thermo Scientific Q-Exactive Focus
Instrument type: LC-ESI-ITFT
Ms type: MS2
Ion mode: POSITIVE
Ionization: ESI
Collision energy: 10
Column name: Acquity CSHC18
Retention time: 0.348 min
Base peak: 124.03930
Precursor m/z: 124.03930
Precursor type: [M+H]+
m/z	relative intensity
53.0392	1
78.0343	6
80.0499	47
84.697	1
91.4411	1
96.0447	29
113.1355	1
124.0029	1
124.0395	999
124.087	1
