Mass spectrum: L-(+)-Glutamic acid; LC-ESI-QTOF; MS2; CE: 15.00;  [M+H]+
Name: L-(+)-Glutamic acid
Class: NA
Formula: C5H9NO4
Exact mass: 147.0532
SMILES: C(CC(=O)O)C(C(=O)O)N
InChI: InChI=1S/C5H9NO4/c6-3(5(9)10)1-2-4(7)8/h3H,1-2,6H2,(H,7,8)(H,9,10)
Instrument: Bruker MicrOTOF-Q
Instrument type: LC-ESI-QTOF
Ms type: MS2
Ion mode: POSITIVE
Ionization: ESI
Collision energy: 15.00
Column name: Acquity CSHC18
Retention time: NA
Base peak: 148.0604
Precursor m/z: 148.0604
Precursor type: [M+H]+
m/z	relative intensity
130.0503	999
131.0538	105
148.0585	130
