Mass spectrum: AL 8810 methyl ester; ESI-TOF; MS2; CE: 6.0000000;  [M+H]+
Name: AL 8810 methyl ester
Class: NA
Formula: C25H33FO4
Exact mass: 416.23629
SMILES: COC(=O)CCC/C=C\CC1C(O)C[C@H](F)[C@@H]1\C=C\[C@H](O)C1Cc2ccccc2C1
InChI: InChI=1S/C25H33FO4/c1-30-25(29)11-5-3-2-4-10-21-20(22(26)16-24(21)28)12-13-23(27)19-14-17-8-6-7-9-18(17)15-19/h2,4,6-9,12-13,19-24,27-28H,3,5,10-11,14-16H2,1H3/b4-2-,13-12+/t20-,21?,22+,23+,24?/m1/s1
Instrument: waters xevo g2 TOF
Instrument type: ESI-TOF
Ms type: MS2
Ion mode: POSITIVE
Ionization: ESI
Collision energy: 6.0000000
Column name: Acquity CSHC18
Retention time: 4.133 min
Base peak: 417.24429
Precursor m/z: 417.24429
Precursor type: [M+H]+
m/z	relative intensity
101.0598	6
117.0712	20
129.0713	160
130.0747	15
131.0867	14
142.0559	35
143.0865	35
145.102	8
151.0598	26
155.0867	30
157.1018	6
159.0804	1
167.0877	5
169.1021	12
171.1171	9
181.1022	11
185.1141	22
186.1025	2
187.1127	31
191.096	6
193.1128	2
195.1185	9
197.0967	40
199.1131	39
200.0865	43
201.1273	11
205.114	5
207.1295	1
209.0909	110
209.593	48
213.1284	119
214.1321	17
215.1373	2
218.0958	14
218.5978	7
219.128	68
220.1292	8
229.1135	80
230.1248	9
231.1376	87
232.1239	12
234.1405	1
243.1283	5
245.1514	198
246.1452	34
249.1364	7
251.1443	7
263.1534	86
264.1658	12
265.1573	14
281.1506	17
287.1779	6
303.1789	2
311.1803	112
312.1833	24
329.1907	391
330.1941	81
331.1887	25
335.1987	17
336.2021	5
347.2005	149
348.2016	36
349.1981	63
350.2019	13
357.0983	5
359.2022	21
361.2175	999
362.2187	256
363.2239	39
365.2017	3
367.2123	184
368.2138	30
377.207	5
378.2126	2
379.2231	483
380.2312	126
381.2241	244
382.2265	57
383.2288	7
397.2182	19
398.2034	20
399.0095	144
400.236	110
407.2061	51
407.707	27
408.209	8
416.2128	107
416.7126	52
417.205	30
417.7128	9
418.1824	3
