Mass spectrum: GLUTAMATE; LC-ESI-QFT; MS2; CE: 30eV;  [M+H]+
Name: GLUTAMATE
Class: NA
Formula: C5H9NO4
Exact mass: 147.05316
SMILES: N[C@@H](CCC(O)=O)C(O)=O
InChI: InChI=1S/C5H9NO4/c6-3(5(9)10)1-2-4(7)8/h3H,1-2,6H2,(H,7,8)(H,9,10)/t3-/m0/s1
Instrument: Q-Exactive Orbitrap, Thermo Scientfic; Ultimate 3000 HPLC, Thermo Scientfic
Instrument type: LC-ESI-QFT
Ms type: MS2
Ion mode: POSITIVE
Ionization: ESI
Collision energy: 30eV
Column name: Acquity CSHC18
Retention time: 0.567 min
Base peak: 148.0604
Precursor m/z: 148.0604
Precursor type: [M+H]+
Precursor intensity: 130
m/z	relative intensity
52.6277	1
56.0502	48
60.0451	1
66.7089	1
69.0341	4
69.8174	1
70.0748	1
71.496	1
72.3929	1
74.0607	8
85.029	50
85.0314	2
85.042	2
85.0483	36
86.8557	1
88.7162	1
89.9406	2
91.1324	1
94.5184	1
94.6288	1
97.008	2
102.0554	999
103.0396	1
103.0588	16
103.2273	1
104.2226	1
106.3719	2
107.9511	3
121.0289	1
125.9613	2
130.0083	2
130.0501	895
130.9666	4
131.034	15
131.0533	20
135.6559	1
137.3228	1
143.9425	1
148.0186	2
148.0606	294
148.0971	7
148.9772	10
149.0236	20
149.0641	6
168.0944	1
169.0355	1
