Mass spectrum: Pheophorbide A; LC-ESI-QTOF; MS2; CE: 20-40eV;  [M+H]+
Name: Pheophorbide A
Class: Porphyrins
Formula: C35H36N4O5
Exact mass: 592.2686
SMILES: C=CC1=C(C)C=2C=C3C(C)(C(CCC(=O)O)(C(=C4C(C(=C5C(C)=C(C=C6C(CC)=C(C)C(C=C1N2)=N6)N=C54)O)(C(=O)OC)[H])N3)[H])[H]
InChI: InChI=1S/C35H36N4O5/c1-8-19-15(3)22-12-24-17(5)21(10-11-28(40)41)32(38-24)30-31(35(43)44-7)34(42)29-18(6)25(39-33(29)30)14-27-20(9-2)16(4)23(37-27)13-26(19)36-22/h8,12-14,17,21,31,38,42H,1,9-11H2,2-7H3,(H,40,41)
Instrument: Impact II, Bruker; Dionex 3000, Thermo Scientific
Instrument type: LC-ESI-QTOF
Ms type: MS2
Ion mode: POSITIVE
Ionization: ESI
Collision energy: 20-40eV
Column name: Acquity CSHC18
Retention time: 24.217 min
Base peak: 593.2775
Precursor m/z: 593.2775
Precursor type: [M+H]+
Precursor intensity: 212159.6
m/z	relative intensity
417.192	52
432.2128	53
433.2198	64
445.2243	77
459.2011	83
461.251	93
463.2286	124
473.2173	127
476.2395	134
477.2252	137
487.2354	152
488.236	160
489.2502	167
491.2279	194
492.2343	213
506.244	214
519.2593	224
521.2761	251
565.2633	307
592.8242	316
592.9847	402
593.4245	999
