Mass spectrum: Ginsenoside Rf; LC-ESI-QFT; MS2; CE: 15,30,45 (NCE);  [M+Na]+
Name: Ginsenoside Rf
Class: NA
Formula: C42H72O14
Exact mass: 800.4922
SMILES: CC(C)=CCCC(C)(O)C1CCC2(C)C1C(O)CC1C3(C)CCC(O)C(C)(C)C3C(CC21C)OC1OC(CO)C(O)C(O)C1OC1OC(CO)C(O)C(O)C1O
InChI: InChI=1S/C42H72O14/c1-20(2)10-9-13-42(8,52)21-11-15-40(6)28(21)22(45)16-26-39(5)14-12-27(46)38(3,4)35(39)23(17-41(26,40)7)53-37-34(32(50)30(48)25(19-44)55-37)56-36-33(51)31(49)29(47)24(18-43)54-36/h10,21-37,43-52H,9,11-19H2,1-8H3
Instrument: QE Focus, Thermo Scientfic; UPLC I-Class, Waters
Instrument type: LC-ESI-QFT
Ms type: MS2
Ion mode: POSITIVE
Ionization: ESI
Collision energy: 15,30,45 (NCE)
Column name: Acquity CSHC18
Retention time: 2.592 min
Base peak: 823.4813
Precursor m/z: 823.4813
Precursor type: [M+Na]+
Precursor intensity: 16246040
m/z	relative intensity
62.4554	2
65.0292	3
80.9646	3
84.8827	3
101.9393	3
116.1935	3
120.438	3
175.7726	4
203.0525	13
206.306	3
245.0638	44
365.1056	425
382.2973	4
382.3382	6
823.4811	999
