Mass spectrum: H-Leu-Pro-OH; LC-ESI-QTOF; MS2; CE: 26.80;  [2M+H]+
Name: H-Leu-Pro-OH
Class: NA
Formula: C11H20N2O3
Exact mass: 228.1474
SMILES: CC(C)CC(C(=O)N1CCCC1C(=O)O)N
InChI: InChI=1S/C11H20N2O3/c1-7(2)6-8(12)10(14)13-5-3-4-9(13)11(15)16/h7-9H,3-6,12H2,1-2H3,(H,15,16)
Instrument: Bruker MicrOTOF-Q
Instrument type: LC-ESI-QTOF
Ms type: MS2
Ion mode: POSITIVE
Ionization: ESI
Collision energy: 26.80
Column name: Acquity CSHC18
Retention time: NA
Base peak: 457.3021
Precursor m/z: 457.3021
Precursor type: [2M+H]+
m/z	relative intensity
229.15	999
229.51	13
230.15	113
251.99	15
306.86	17
344.87	21
349.07	21
359.4	15
455.21	16
514.11	12
