Mass spectrum: Jasmonic acid; LC-ESI-QTOF; MS2; CE: -10, -35, -60V;  [M-H]-
Name: Jasmonic acid
Class: NA
Formula: C12H18O3
Exact mass: 210.1256
SMILES: CCC=CCC1C(CCC1=O)CC(=O)O
InChI: InChI=1S/C12H18O3/c1-2-3-4-5-10-9(8-12(14)15)6-7-11(10)13/h3-4,9-10H,2,5-8H2,1H3,(H,14,15)
Instrument: TripleToF 5600; Sciex
Instrument type: LC-ESI-QTOF
Ms type: MS2
Ion mode: NEGATIVE
Ionization: ESI
Collision energy: -10, -35, -60V
Column name: Acquity CSHC18
Retention time: 13.939 min
Base peak: 209.1201
Precursor m/z: 209.1201
Precursor type: [M-H]-
Precursor intensity: 502544.6
m/z	relative intensity
165.1317	37
209.12	999
