Mass spectrum: LYSINE; LC-ESI-QTOF; MS2; CE: 20;  [M-H]-
Name: LYSINE
Class: NA
Formula: C6H14N2O2
Exact mass: 146.10553
SMILES: NCCCC[C@H](N)C(O)=O
InChI: InChI=1S/C6H14N2O2/c7-4-2-1-3-5(8)6(9)10/h5H,1-4,7-8H2,(H,9,10)/t5-/m0/s1
Instrument: Agilent 6530Â Q-TOF LC/MS
Instrument type: LC-ESI-QTOF
Ms type: MS2
Ion mode: NEGATIVE
Ionization: ESI
Collision energy: 20
Column name: NA
Retention time: 0.200 min
Base peak: 145.09943
Precursor m/z: 145.09943
Precursor type: [M-H]-
Precursor intensity: 122
m/z	relative intensity
42.0042	280
57.0077	393
60.9999	396
62.0004	583
71.7304	594
84.9761	816
146.0129	999
