Mass spectrum: Helicin; LC-ESI-QTOF; MS2; CE: 15.00;  [M-H2O+H]+
Name: Helicin
Class: NA
Formula: C13H16O7
Exact mass: 284.0896
SMILES: C1=CC=C(C(=C1)C=O)OC2C(C(C(C(O2)CO)O)O)O
InChI: InChI=1S/C13H16O7/c14-5-7-3-1-2-4-8(7)19-13-12(18)11(17)10(16)9(6-15)20-13/h1-5,9-13,15-18H,6H2
Instrument: Bruker MicrOTOF-Q
Instrument type: LC-ESI-QTOF
Ms type: MS2
Ion mode: POSITIVE
Ionization: ESI
Collision energy: 15.00
Column name: Acquity CSHC18
Retention time: NA
Base peak: 267.0863
Precursor m/z: 267.0863
Precursor type: [M-H2O+H]+
m/z	relative intensity
100.1531	11
107.0324	11
111.0388	11
115.0494	9
121.0261	106
123.0424	999
123.2046	8
123.2913	8
124.0467	104
125.023	47
127.0376	79
128.0576	14
129.0846	16
131.0442	47
133.0319	31
135.0333	14
141.0681	11
145.0573	16
146.058	8
147.0468	22
147.0938	19
148.0705	12
149.051	11
157.0555	21
157.1031	9
158.0664	9
159.0429	283
160.047	18
161.0497	34
163.0379	14
165.053	15
169.0625	29
173.0589	134
175.0671	26
176.0881	12
177.0525	106
178.0595	9
185.0566	124
186.0661	8
187.0356	13
189.0544	14
193.0211	11
201.054	140
202.0603	32
203.0637	29
205.0504	15
213.0524	17
219.064	9
231.0625	34
249.0735	26
267.0801	55
268.1284	12
269.0441	67
322.2111	11
730.547	8
