Mass spectrum: 17-trans Prostaglandin E3; ESI-TOF; MS2; CE: 6.0000000;  [M+H]+
Name: 17-trans Prostaglandin E3
Class: NA
Formula: C20H30O5
Exact mass: 350.20932
SMILES: O=C1[C@H](C/C=C\CCCC(O)=O)[C@@H](/C=C/[C@@H](O)C/C=C/CC)[C@H](O)C1
InChI: InChI=1S/C20H30O5/c1-2-3-6-9-15(21)12-13-17-16(18(22)14-19(17)23)10-7-4-5-8-11-20(24)25/h3-4,6-7,12-13,15-17,19,21,23H,2,5,8-11,14H2,1H3,(H,24,25)/b6-3+,7-4-,13-12+/t15-,16+,17+,19+/m0/s1
Instrument: waters xevo g2 TOF
Instrument type: ESI-TOF
Ms type: MS2
Ion mode: POSITIVE
Ionization: ESI
Collision energy: 6.0000000
Column name: Acquity CSHC18
Retention time: 3.382 min
Base peak: 351.21732
Precursor m/z: 351.21732
Precursor type: [M+H]+
m/z	relative intensity
95.0861	17
107.0869	16
121.1021	20
131.0873	24
135.08	8
143.087	5
145.1018	15
147.1187	18
149.0974	60
165.0572	16
171.1172	16
173.0974	13
186.0796	10
187.1124	38
189.0909	98
191.1058	17
195.1175	14
197.1134	6
199.1118	14
201.128	23
203.1067	21
204.1104	6
205.1225	12
207.1025	63
211.112	6
213.1283	95
215.1068	27
217.1205	17
219.1076	9
221.1417	5
227.1423	4
229.1204	8
231.1379	78
233.1237	32
235.1668	46
243.1757	54
245.1892	20
251.1797	20
253.1524	19
255.177	33
261.1835	95
263.2001	38
269.1888	72
271.1703	70
273.1852	93
277.1404	11
279.1754	168
280.18	39
287.2006	83
289.1808	34
290.1773	6
297.1841	999
298.1884	202
315.1949	976
316.199	225
333.2061	714
334.2099	164
335.1348	14
352.1803	209
352.6807	82
353.182	23
