Mass spectrum: Cotinine; LC-ESI-ITFT; MS2; CE: 10;  [M+H]+
Name: Cotinine
Class: Organoheterocyclic compounds; Pyridines and derivatives; Pyrrolidinylpyridines
Formula: C10H12N2O
Exact mass: 176.09496
SMILES: CN1C(CCC1=O)C1=CN=CC=C1
InChI: InChI=1S/C10H12N2O/c1-12-9(4-5-10(12)13)8-3-2-6-11-7-8/h2-3,6-7,9H,4-5H2,1H3
Instrument: Thermo Scientific Q-Exactive Focus
Instrument type: LC-ESI-ITFT
Ms type: MS2
Ion mode: POSITIVE
Ionization: ESI
Collision energy: 10
Column name: Acquity CSHC18
Retention time: 0.348 min
Base peak: 177.10223
Precursor m/z: 177.10223
Precursor type: [M+H]+
m/z	relative intensity
80.0499	80
98.0604	32
146.0601	10
149.0711	1
177.1024	999
