Mass spectrum: O-PHOSPHOETHANOLAMINE; LC-ESI-QFT; MS2; CE: 30eV;  [M+H]+
Name: O-PHOSPHOETHANOLAMINE
Class: NA
Formula: C2H8NO4P
Exact mass: 141.01909
SMILES: NCCOP(O)(O)=O
InChI: InChI=1S/C2H8NO4P/c3-1-2-7-8(4,5)6/h1-3H2,(H2,4,5,6)
Instrument: Q-Exactive Orbitrap, Thermo Scientfic; Ultimate 3000 HPLC, Thermo Scientfic
Instrument type: LC-ESI-QFT
Ms type: MS2
Ion mode: POSITIVE
Ionization: ESI
Collision energy: 30eV
Column name: Acquity CSHC18
Retention time: 0.587 min
Base peak: 142.0264
Precursor m/z: 142.0264
Precursor type: [M+H]+
Precursor intensity: 115
m/z	relative intensity
52.4275	3
52.4671	3
55.9352	45
56.9431	999
57.9435	17
67.1595	3
67.8486	3
70.9586	7
72.9379	558
73.9384	7
74.9535	157
75.5778	3
75.6961	3
76.6732	3
83.1538	3
84.1657	3
85.0767	7
86.8676	3
87.1894	3
90.9484	299
91.9489	6
96.9615	17
96.9724	6
97.0655	3
97.9694	820
98.072	4
98.9699	21
98.9728	14
99.9359	4
103.9526	3
106.6539	3
108.9588	18
112.0875	23
112.8625	3
114.9608	10
114.9646	87
114.9677	68
115.9798	67
117.9802	5
118.9431	174
118.9679	34
119.9757	8
120.0241	4
131.9747	957
132.9747	5
132.9785	5
136.9535	83
141.1139	21
141.9591	36
141.9838	16
142.0268	35
142.9325	25
142.9674	5
154.8282	4
159.9697	36
160.0647	3
