Mass spectrum: Genistein; ESI-TOF; MS2; CE: 0.6458333;  [M+H]+
Name: Genistein
Class: NA
Formula: C15H10O5
Exact mass: 270.05282
SMILES: OC1=CC=C(C=C1)C1=COC2=CC(O)=CC(O)=C2C1=O
InChI: InChI=1S/C15H10O5/c16-9-3-1-8(2-4-9)11-7-20-13-6-10(17)5-12(18)14(13)15(11)19/h1-7,16-18H
Instrument: waters xevo g2 TOF
Instrument type: ESI-TOF
Ms type: MS2
Ion mode: POSITIVE
Ionization: ESI
Collision energy: 0.6458333
Column name: Acquity CSHC18
Retention time: 2.921 min
Base peak: 271.06082
Precursor m/z: 271.06082
Precursor type: [M+H]+
m/z	relative intensity
67.0191	5
68.9984	27
89.0399	6
91.0552	170
92.058	14
95.032	4
103.0554	6
105.0342	14
107.0503	11
109.0294	21
111.0085	44
112.012	1
115.0546	14
117.0712	9
118.0415	2
119.0496	140
120.0532	11
121.0088	71
123.0445	7
125.0245	1
131.0501	60
133.0294	30
135.0245	10
137.0419	31
138.0282	2
141.0706	104
142.0744	12
143.0514	1
144.0566	5
146.0323	28
147.0452	3
149.0242	436
150.0286	57
152.0618	11
153.036	21
154.0224	102
155.0713	135
157.0655	13
159.0807	225
160.0484	24
165.019	156
166.0224	4
168.0578	3
169.0654	205
170.0692	30
173.0814	58
174.0656	10
175.041	21
176.0796	4
177.0195	2
178.0261	6
181.0656	19
182.0694	2
183.0446	12
184.0503	9
185.0598	24
188.0424	2
191.0344	9
197.0603	253
198.0646	44
199.0975	3
200.0474	18
201.0552	29
202.0593	5
211.0396	7
213.0552	8
214.0608	4
215.0707	999
216.0744	55
217.0772	9
225.0554	26
226.0602	30
227.0703	30
228.0431	13
229.0506	3
241.0502	3
242.0577	21
243.0658	673
244.0685	106
245.113	14
253.0499	379
254.025	65
255.0558	6
271.5257	886
