Mass spectrum: Capric acid; LC-ESI-QTOF; MS2; CE: 15 / 50;  [M-H]-
Name: Capric acid
Class: NA
Formula: C10H20O2
Exact mass: 172.1463
SMILES: CCCCCCCCCC(=O)O
InChI: InChI=1S/C10H20O2/c1-2-3-4-5-6-7-8-9-10(11)12/h2-9H2,1H3,(H,11,12)
Instrument: impact II
Instrument type: LC-ESI-QTOF
Ms type: MS2
Ion mode: NEGATIVE
Ionization: ESI
Collision energy: 15 / 50
Column name: Acquity CSHC18
Retention time: 0.771 min
Base peak: 171.1392
Precursor m/z: 171.1392
Precursor type: [M-H]-
m/z	relative intensity
79.9568	339
96.9606	247
171.1399	999
