Mass spectrum: Uric acid; LC-ESI-ITFT; MS2; CE: 100;  [M-H]-
Name: Uric acid
Class: Organoheterocyclic compounds; Imidazopyrimidines; Purines and purine derivatives
Formula: C5H4N4O3
Exact mass: 168.02834
SMILES: O=C1NC2=C(N1)C(=O)NC(=O)N2
InChI: InChI=1S/C5H4N4O3/c10-3-1-2(7-4(11)6-1)8-5(12)9-3/h(H4,6,7,8,9,10,11,12)
Instrument: Thermo Scientific Q-Exactive Focus
Instrument type: LC-ESI-ITFT
Ms type: MS2
Ion mode: NEGATIVE
Ionization: ESI
Collision energy: 100
Column name: Acquity CSHC18
Retention time: 2.583 min
Base peak: 167.02106
Precursor m/z: 167.02106
Precursor type: [M-H]-
m/z	relative intensity
59.095	486
59.3881	435
63.8204	504
80.0184	439
80.0196	469
92.5139	999
102.8458	498
111.6039	468
170.0659	500
177.2101	524
