Mass spectrum: Ureidopropionic acid; ESI-TOF; MS2; CE: 6.0000000;  [M+H]+
Name: Ureidopropionic acid
Class: NA
Formula: C4H8N2O3
Exact mass: 132.05349
SMILES: NC(=O)NCCC(O)=O
InChI: InChI=1S/C4H8N2O3/c5-4(9)6-2-1-3(7)8/h1-2H2,(H,7,8)(H3,5,6,9)
Instrument: waters xevo g2 TOF
Instrument type: ESI-TOF
Ms type: MS2
Ion mode: POSITIVE
Ionization: ESI
Collision energy: 6.0000000
Column name: Acquity CSHC18
Retention time: 0.608 min
Base peak: 133.06149
Precursor m/z: 133.06149
Precursor type: [M+H]+
m/z	relative intensity
90.055	38
96.9611	69
96.9612	108
111.0209	15
115.0506	999
133.061	135
137.9881	683
144.9882	10
155.0431	545
155.9896	16
184.9862	182
195.9936	11
212.0338	32
231.9781	46
319.0321	11
