Mass spectrum: 4-Methylumbelliferone; LC-ESI-QTOF; MS2; CE: 15.00;  [M-H]-
Name: 4-Methylumbelliferone
Class: NA
Formula: C10H8O3
Exact mass: 176.0473
SMILES: CC1=CC(=O)OC2=C1C=CC(=C2)O
InChI: InChI=1S/C10H8O3/c1-6-4-10(12)13-9-5-7(11)2-3-8(6)9/h2-5,11H,1H3
Instrument: Bruker MicrOTOF-Q
Instrument type: LC-ESI-QTOF
Ms type: MS2
Ion mode: NEGATIVE
Ionization: ESI
Collision energy: 15.00
Column name: Acquity CSHC18
Retention time: NA
Base peak: 175.0401
Precursor m/z: 175.0401
Precursor type: [M-H]-
m/z	relative intensity
119.05	132
131.05	233
133.03	334
147.04	208
175.04	999
176.04	137
