Mass spectrum: Reserpine; LC-ESI-QTOF; MS2; CE: 32.15;  [M-H]-
Name: Reserpine
Class: NA
Formula: C33H40N2O9
Exact mass: 608.2734
SMILES: COC1C(CC2CN3CCC4=C(C3CC2C1C(=O)OC)NC5=C4C=CC(=C5)OC)OC(=O)C6=CC(=C(C(=C6)OC)OC)OC
InChI: InChI=1S/C33H40N2O9/c1-38-19-7-8-20-21-9-10-35-16-18-13-27(44-32(36)17-11-25(39-2)30(41-4)26(12-17)40-3)31(42-5)28(33(37)43-6)22(18)15-24(35)29(21)34-23(20)14-19/h7-8,11-12,14,18,22,24,27-28,31,34H,9-10,13,15-16H2,1-6H3
Instrument: Bruker MicrOTOF-Q
Instrument type: LC-ESI-QTOF
Ms type: MS2
Ion mode: NEGATIVE
Ionization: ESI
Collision energy: 32.15
Column name: Acquity CSHC18
Retention time: NA
Base peak: 607.2661
Precursor m/z: 607.2661
Precursor type: [M-H]-
m/z	relative intensity
48.0265	107
51.1919	60
51.7434	101
52.3402	78
52.9965	100
53.4211	121
54.5821	112
55.264	81
56.0932	128
56.6343	72
58.4319	109
60.6866	127
61.2662	103
62.1808	84
63.0426	106
65.6866	94
66.9469	109
67.7284	103
70.2909	66
72.8347	84
73.6457	100
76.769	94
79.7896	100
81.028	60
81.5661	101
82.2619	94
83.2754	130
86.2981	87
86.8043	94
88.0923	103
88.612	127
91.5263	100
92.4288	72
92.9452	72
96.6713	110
98.0713	100
99.7958	112
101.3947	135
102.196	75
104.0261	75
106.8199	94
108.6211	97
109.2335	175
110.456	109
114.224	97
114.7895	87
115.901	112
117.5518	63
118.3812	127
120.073	80
120.922	75
121.4518	112
122.3897	91
123.0177	136
126.7747	105
129.0053	63
129.809	72
131.7202	75
133.5756	94
135.9067	63
136.8074	272
138.0492	112
138.8207	133
139.3669	75
139.9094	103
142.1057	94
143.0722	66
143.9915	109
147.2241	97
150.0156	97
150.6208	148
152.049	118
153.0488	115
155.6357	87
156.4939	72
159.2418	81
161.564	118
163.6185	112
164.186	83
165.4387	72
167.2305	209
168.2321	72
169.344	91
169.9243	83
170.7207	115
174.11	84
179.1496	100
180.0361	103
180.4799	87
180.9919	585
181.5627	94
182.2029	98
184.0014	87
184.6357	100
186.7626	72
188.2067	106
189.2318	84
190.6888	66
193.663	87
196.0455	200
196.6987	594
197.8599	216
199.0381	94
199.7536	103
201.7112	69
202.7772	69
206.0658	81
210.6422	999
212.0901	270
213.0744	204
214.0754	109
216.6284	60
226.0993	121
234.0641	87
235.0898	139
235.9813	157
243.3879	127
245.8636	63
246.515	63
250.1002	124
251.1236	151
262.9764	91
265.1422	91
275.0837	118
279.6911	109
289.1336	78
298.1051	91
298.9397	63
303.1559	66
307.0739	84
311.8688	87
315.2802	178
316.1169	87
319.1304	63
320.1422	91
331.1383	94
332.5249	87
347.1169	81
348.1511	242
352.8065	84
356.4228	115
364.2517	101
379.2177	109
380.1111	276
395.2012	178
408.9481	72
421.6586	84
481.9311	81
532.0359	91
538.0595	91
541.7808	75
557.7096	69
560.2182	63
577.2117	206
578.2028	62
592.2474	391
593.2061	75
618.0538	63
622.236	115
654.6431	63
680.4651	66
774.6488	63
866.0755	66
917.9121	103
923.9519	69
964.9889	100
984.4566	91
