Mass spectrum: GUANOSINE; LC-ESI-QFT; MS2; CE: 30eV;  [M-H]-
Name: GUANOSINE
Class: NA
Formula: C10H13N5O5
Exact mass: 283.09167
SMILES: NC1=NC2=C(N=CN2[C@@H]2O[C@H](CO)[C@@H](O)[C@H]2O)C(=O)N1
InChI: InChI=1S/C10H13N5O5/c11-10-13-7-4(8(19)14-10)12-2-15(7)9-6(18)5(17)3(1-16)20-9/h2-3,5-6,9,16-18H,1H2,(H3,11,13,14,19)/t3-,5-,6-,9-/m1/s1
Instrument: Q-Exactive Orbitrap, Thermo Scientfic; Ultimate 3000 HPLC, Thermo Scientfic
Instrument type: LC-ESI-QFT
Ms type: MS2
Ion mode: NEGATIVE
Ionization: ESI
Collision energy: 30eV
Column name: Acquity CSHC18
Retention time: 1.125 min
Base peak: 282.0844
Precursor m/z: 282.0844
Precursor type: [M-H]-
Precursor intensity: 126
m/z	relative intensity
51.0907	5
52.6445	5
52.7356	5
52.737	6
54.5911	6
57.4037	5
57.708	5
64.3056	6
65.0071	5
65.5431	5
68.4836	6
71.8488	6
80.1438	5
81.6286	5
83.5346	5
83.9946	5
88.906	6
91.4825	6
107.0345	47
108.0185	39
110.0605	6
110.4915	6
125.2206	6
126.0293	82
133.0141	410
134.0173	10
135.9922	8
151.0377	78
151.0441	265
164.0565	14
180.3782	6
192.0517	25
219.833	7
282.0842	999
283.0883	63
