Mass spectrum: N-Oleoyl dopamine; LC-ESI-ITFT; MS2; CE: 40;  [M-H]-
Name: N-Oleoyl dopamine
Class: NA
Formula: C26H43NO3
Exact mass: 417.32429
SMILES: CCCCCCCC/C=C\CCCCCCCC(=O)NCCC1=CC(=C(C=C1)O)O
InChI: InChI=1S/C26H43NO3/c1-2-3-4-5-6-7-8-9-10-11-12-13-14-15-16-17-26(30)27-21-20-23-18-19-24(28)25(29)22-23/h9-10,18-19,22,28-29H,2-8,11-17,20-21H2,1H3,(H,27,30)/b10-9-
Instrument: Thermo Scientific Q-Exactive Focus
Instrument type: LC-ESI-ITFT
Ms type: MS2
Ion mode: NEGATIVE
Ionization: ESI
Collision energy: 40
Column name: Acquity CSHC18
Retention time: 1.479 min
Base peak: 416.31702
Precursor m/z: 416.31702
Precursor type: [M-H]-
m/z	relative intensity
58.0286	27
95.049	20
107.049	27
108.0204	21
122.0362	95
123.044	999
135.044	55
152.0706	21
280.2643	17
416.3162	118
