Mass spectrum: (E)-Ferulic acid; LC-ESI-QTOF; MS2; CE: 15.00;  [M-H]-
Name: (E)-Ferulic acid
Class: NA
Formula: C10H10O4
Exact mass: 194.0579
SMILES: COC1=C(C=CC(=C1)C=CC(=O)O)O
InChI: InChI=1S/C10H10O4/c1-14-9-6-7(2-4-8(9)11)3-5-10(12)13/h2-6,11H,1H3,(H,12,13)
Instrument: Bruker MicrOTOF-Q
Instrument type: LC-ESI-QTOF
Ms type: MS2
Ion mode: NEGATIVE
Ionization: ESI
Collision energy: 15.00
Column name: Acquity CSHC18
Retention time: NA
Base peak: 193.0506
Precursor m/z: 193.0506
Precursor type: [M-H]-
m/z	relative intensity
61.3727	22
69.6509	28
106.0408	95
109.032	19
111.0125	58
117.035	363
117.7055	19
121.0324	95
123.0578	21
132.0175	24
133.975	999
136.0139	22
136.9969	284
138.0306	30
139.0373	112
148.0247	19
149.0613	149
150.0329	90
178.0281	977
179.0331	91
193.0564	46
