Mass spectrum: Glucobrassicin; LC-ESI-QTOF; MS2; CE: 26.03;  [M-H]-
Name: Glucobrassicin
Class: NA
Formula: C16H20N2O9S2
Exact mass: 448.0610
SMILES: C1=CC=C2C(=C1)C(=CN2)CC(=NOS(=O)(=O)O)SC3C(C(C(C(O3)CO)O)O)O
InChI: InChI=1S/C16H20N2O9S2/c19-7-11-13(20)14(21)15(22)16(26-11)28-12(18-27-29(23,24)25)5-8-6-17-10-4-2-1-3-9(8)10/h1-4,6,11,13-17,19-22H,5,7H2,(H,23,24,25)
Instrument: Bruker MicrOTOF-Q
Instrument type: LC-ESI-QTOF
Ms type: MS2
Ion mode: NEGATIVE
Ionization: ESI
Collision energy: 26.03
Column name: Acquity CSHC18
Retention time: NA
Base peak: 447.0537
Precursor m/z: 447.0537
Precursor type: [M-H]-
m/z	relative intensity
53.2546	2
54.3558	3
56.3547	2
66.0323	3
78.0285	3
79.952	7
95.952	797
96.5389	2
96.5921	5
96.8296	5
96.9598	999
97.9512	36
98.9587	79
111.9302	8
113.0239	3
117.0199	2
121.9573	5
127.924	21
128.9312	6
129.9261	6
130.0652	2
138.9692	20
144.0458	10
171.0545	4
172.0212	9
195.036	10
205.0455	149
206.0439	29
215.0755	2
251.0076	6
253.9944	16
259.0123	88
260.0186	4
269.0243	1
274.9894	63
