Mass spectrum: H-Val-Ile-OH; LC-ESI-QTOF; MS2; CE: 15.00;  [M-H]-
Name: H-Val-Ile-OH
Class: NA
Formula: C11H22N2O3
Exact mass: 230.1630
SMILES: CCC(C)C(C(=O)O)NC(=O)C(C(C)C)N
InChI: InChI=1S/C11H22N2O3/c1-5-7(4)9(11(15)16)13-10(14)8(12)6(2)3/h6-9H,5,12H2,1-4H3,(H,13,14)(H,15,16)
Instrument: Bruker MicrOTOF-Q
Instrument type: LC-ESI-QTOF
Ms type: MS2
Ion mode: NEGATIVE
Ionization: ESI
Collision energy: 15.00
Column name: Acquity CSHC18
Retention time: NA
Base peak: 229.1558
Precursor m/z: 229.1558
Precursor type: [M-H]-
m/z	relative intensity
54.84	113
56.32	84
62.12	84
63.02	104
90.55	117
94.44	138
96.81	121
98.06	188
103.47	117
108.02	121
115.09	130
130.09	163
145.55	125
182.29	88
185.17	999
186.18	125
208.52	92
211.08	100
212.82	100
219.81	109
229.16	439
287.11	121
288.77	100
373.29	138
396.86	96
448.88	88
573.04	171
591.43	109
598.4	113
665.64	109
729.44	84
775.48	109
785.21	100
847.43	104
887.41	92
943.47	163
