Mass spectrum: INDOLE-3-ETHANOL; LC-ESI-QTOF; MS2; CE: 10;  [M+H]+
Name: INDOLE-3-ETHANOL
Class: NA
Formula: C10H11NO
Exact mass: 161.08406
SMILES: OCCC1=CNC2=CC=CC=C12
InChI: InChI=1S/C10H11NO/c12-6-5-8-7-11-10-4-2-1-3-9(8)10/h1-4,7,11-12H,5-6H2
Instrument: Agilent 6530Â Q-TOF LC/MS
Instrument type: LC-ESI-QTOF
Ms type: MS2
Ion mode: POSITIVE
Ionization: ESI
Collision energy: 10
Column name: NA
Retention time: 0.200 min
Base peak: 162.08824
Precursor m/z: 162.08824
Precursor type: [M+H]+
Precursor intensity: 79.5
m/z	relative intensity
77.0374	27
84.0802	28
91.0643	29
106.0629	30
115.0672	33
116.0622	35
117.0955	35
118.0712	45
127.0733	49
128.0572	62
130.0789	76
131.071	94
143.096	114
144.1611	125
144.4016	189
145.0807	257
161.0975	271
162.1211	999
