Mass spectrum: GAMMA-AMINOBUTYRATE; LC-ESI-QFT; MS2; CE: 30eV;  [M+H]+
Name: GAMMA-AMINOBUTYRATE
Class: NA
Formula: C4H9NO2
Exact mass: 103.06333
SMILES: NCCCC(O)=O
InChI: InChI=1S/C4H9NO2/c5-3-1-2-4(6)7/h1-3,5H2,(H,6,7)
Instrument: Q-Exactive Orbitrap, Thermo Scientfic; Ultimate 3000 HPLC, Thermo Scientfic
Instrument type: LC-ESI-QFT
Ms type: MS2
Ion mode: POSITIVE
Ionization: ESI
Collision energy: 30eV
Column name: Acquity CSHC18
Retention time: 0.612 min
Base peak: 104.0706
Precursor m/z: 104.0706
Precursor type: [M+H]+
Precursor intensity: 195
m/z	relative intensity
52.3365	1
57.2723	1
58.0659	1
60.0452	2
68.0502	19
69.0342	240
70.0376	1
76.0343	1
77.5075	1
86.0607	269
87.0447	999
87.0641	5
88.0481	15
91.711	1
95.0497	4
103.0953	4
103.1317	1
104.0712	60
104.1074	2
105.034	2
105.0452	4
105.0703	1
105.5544	1
106.6577	1
110.9449	1
