Mass spectrum: 3-NITRO-L-TYROSINE; LC-ESI-QTOF; MS2; CE: 10;  [M+H]+
Name: 3-NITRO-L-TYROSINE
Class: NA
Formula: C9H10N2O5
Exact mass: 226.0590
SMILES: C1=CC(=C(C=C1CC(C(=O)O)N)[N+](=O)[O-])O
InChI: InChI=1S/C9H10N2O5/c10-6(9(13)14)3-5-1-2-8(12)7(4-5)11(15)16/h1-2,4,6,12H,3,10H2,(H,13,14)
Instrument: Agilent 6530Â Q-TOF LC/MS
Instrument type: LC-ESI-QTOF
Ms type: MS2
Ion mode: POSITIVE
Ionization: ESI
Collision energy: 10
Column name: NA
Retention time: 0.200 min
Base peak: 227.06706
Precursor m/z: 227.06706
Precursor type: [M+H]+
Precursor intensity: 94.5
m/z	relative intensity
65.038	13
78.0414	14
90.0329	16
104.0486	20
105.0572	20
106.0408	28
117.0457	29
120.0483	30
133.0521	34
135.0618	42
136.0396	44
146.0432	44
164.0329	48
168.0281	58
181.0601	93
210.0369	94
227.0648	107
227.174	999
