Mass spectrum: 4'-O-Methylquercetin; LC-ESI-QTOF; MS2; CE: 50eV;  [M+H]+
Name: 4'-O-Methylquercetin
Class: Flavonol
Formula: C16H12O7
Exact mass: 316.0583
SMILES: COC1=C(C=C(C=C1)C2=C(C(=O)C3=C(C=C(C=C3O2)O)O)O)O
InChI: InChI=1S/C16H12O7/c1-22-11-3-2-7(4-9(11)18)16-15(21)14(20)13-10(19)5-8(17)6-12(13)23-16/h2-6,17-19,21H,1H3
Instrument: TIMS-TOF Pro, Bruker Daltonik; Elute UHPLC System, Bruker Daltonik
Instrument type: LC-ESI-QTOF
Ms type: MS2
Ion mode: POSITIVE
Ionization: ESI
Collision energy: 50eV
Column name: Acquity CSHC18
Retention time: 7.639 min
Base peak: 317.0638
Precursor m/z: 317.0638
Precursor type: [M+H]+
Precursor intensity: 27018.94
m/z	relative intensity
77.0398	4
111.0085	6
143.0367	4
153.0171	37
154.0217	5
183.0478	6
199.0311	4
203.033	9
217.0507	14
228.0393	8
229.0491	11
245.0446	15
256.0335	5
258.0481	8
285.0048	4
301.0162	4
302.0438	47
317.0299	17
317.0638	999
