Mass spectrum: Corticosterone; APCI-ITFT; MS2; CE: HCD 90;  [M-H]-
Name: Corticosterone
Class: NA
Formula: C21H30O4
Exact mass: 346.21441
SMILES: CC12CCC(=O)C=C1CCC3C2C(CC4(C3CCC4C(=O)CO)C)O
InChI: InChI=1S/C21H30O4/c1-20-8-7-13(23)9-12(20)3-4-14-15-5-6-16(18(25)11-22)21(15,2)10-17(24)19(14)20/h9,14-17,19,22,24H,3-8,10-11H2,1-2H3
Instrument: Orbitrap Elite
Instrument type: APCI-ITFT
Ms type: MS2
Ion mode: NEGATIVE
Ionization: APCI
Collision energy: HCD 90
Column name: Acquity CSHC18
Retention time: 0.076 min
Base peak: 345.20550
Precursor m/z: 345.20550
Precursor type: [M-H]-
Precursor intensity: 2933388
m/z	relative intensity
84.0401	31
96.04	40
106.0606	43
120.0762	47
137.079	113
164.1026	119
172.7147	123
189.1101	134
201.1283	145
226.1361	159
238.1362	167
244.1645	177
256.4884	230
270.1746	254
274.1745	258
283.854	269
295.62	440
310.6699	672
327.7819	729
344.1978	999
