Mass spectrum: Quercetin-3-(2''-Apiosyl-6''rhamnosylglucoside); LC-ESI-ITFT; MS2; CE: 35eV;  [M+H]+
Name: Quercetin-3-(2''-Apiosyl-6''rhamnosylglucoside)
Class: Flavonoid
Formula: C32H38O20
Exact mass: 742.1956
SMILES: CC1C(C(C(C(O1)OCC2C(C(C(C(O2)OC3=C(OC4=CC(=CC(=C4C3=O)O)O)C5=CC(=C(C=C5)O)O)O)O)O)OC6C(C(CO6)(CO)O)O)O)O
InChI: InChI=1S/C32H38O20/c1-10-19(38)23(42)27(52-31-28(44)32(45,8-33)9-47-31)30(48-10)46-7-17-20(39)22(41)24(43)29(50-17)51-26-21(40)18-15(37)5-12(34)6-16(18)49-25(26)11-2-3-13(35)14(36)4-11/h2-6,10,17,19-20,22-24,27-31,33-39,41-45H,7-9H2,1H3
Instrument: LTQ Orbitrap XL, Thermo Scientfic; Dionex Ultimate 300
Instrument type: LC-ESI-ITFT
Ms type: MS2
Ion mode: POSITIVE
Ionization: ESI
Collision energy: 35eV
Column name: Lichrospher C18 Column 250*4 5um, Interchim
Retention time: 45.01 min
Base peak: 743.2066
Precursor m/z: 743.2066
Precursor type: [M+H]+
m/z	relative intensity
228.0019	1
229.0218	9
242.9475	1
256.9473	9
261.054	2
274.0088	1
279.0434	9
285.0223	5
303.0141	999
315.0479	2
327.0838	3
329.2356	1
345.126	14
369.0532	4
387.0073	4
399.0714	5
411.1826	1
413.0619	1
428.9309	2
431.1815	1
435.0263	50
440.84	1
447.019	10
448.8793	32
454.8634	1
458.9078	2
464.8173	136
476.9973	7
488.9893	9
491.0525	4
506.9486	3
543.1945	1
550.9592	1
557.1229	3
560.8091	1
563.0645	1
568.7167	1
575.0264	5
579.0242	8
580.3498	3
581.1301	15
592.818	4
596.4258	16
597.0642	34
610.2101	9
610.819	114
623.0601	4
629.2028	2
639.0551	1
649.0367	1
652.9527	1
655.0422	1
681.3902	1
692.0532	1
693.1462	1
699.2239	3
707.0757	3
711.121	2
