Mass spectrum: Catechin; LC-ESI-QFT; MS2; CE: NCE_15_30_56;  [M-H]-
Name: Catechin
Class: NA
Formula: C15H14O6
Exact mass: 290.0790
SMILES: C1C(C(OC2=CC(=CC(=C21)O)O)C3=CC(=C(C=C3)O)O)O
InChI: InChI=1S/C15H14O6/c16-8-4-11(18)9-6-13(20)15(21-14(9)5-8)7-1-2-10(17)12(19)3-7/h1-5,13,15-20H,6H2
Instrument: Thermo_Qexactive_Plus
Instrument type: LC-ESI-QFT
Ms type: MS2
Ion mode: NEGATIVE
Ionization: ESI
Collision energy: NCE_15_30_56
Column name: Acquity CSHC18
Retention time: 3.038 min
Base peak: 289.0720
Precursor m/z: 289.0720
Precursor type: [M-H]-
Precursor intensity: 841188100
m/z	relative intensity
51.0066	4
57.033	5
70.1866	5
81.0334	5
81.71	6
83.0129	6
93.0332	6
95.0339	6
97.0288	7
99.0437	7
108.0205	7
109.0291	8
110.0321	8
111.0434	9
116.4843	10
121.0282	10
122.0365	10
123.0439	10
125.0216	10
126.0267	11
135.0435	11
137.0241	11
138.03	11
139.0385	11
145.0287	12
146.0361	12
147.044	13
149.0349	13
150.0307	15
151.0397	16
152.043	17
159.0441	17
160.052	18
161.045	18
162.0304	20
163.0396	21
164.0113	22
165.0183	24
166.0261	25
167.0342	26
173.0599	27
174.0324	28
175.0558	28
177.0535	29
179.0364	29
180.0393	32
184.0508	34
185.0603	34
186.0673	37
187.04	40
188.0475	44
199.0751	45
201.0735	46
202.0642	47
203.0692	52
204.0743	54
205.0502	55
206.0545	69
212.0478	72
217.0695	74
221.0822	81
222.0866	89
227.0753	108
229.0506	129
230.0578	129
231.0282	130
245.081	176
246.0867	198
247.0614	201
248.0667	203
271.0604	334
289.0731	999
