Mass spectrum: L-Phenylalanine; LC-ESI-QTOF; MS2; CE: 35.00;  [M+H]+
Name: L-Phenylalanine
Class: NA
Formula: C9H11NO2
Exact mass: 165.0790
SMILES: C1=CC=C(C=C1)CC(C(=O)O)N
InChI: InChI=1S/C9H11NO2/c10-8(9(11)12)6-7-4-2-1-3-5-7/h1-5,8H,6,10H2,(H,11,12)
Instrument: Bruker MicrOTOF-Q
Instrument type: LC-ESI-QTOF
Ms type: MS2
Ion mode: POSITIVE
Ionization: ESI
Collision energy: 35.00
Column name: Acquity CSHC18
Retention time: NA
Base peak: 166.0858
Precursor m/z: 166.0858
Precursor type: [M+H]+
m/z	relative intensity
103.0511	220
104.0584	202
117.0527	388
117.055	303
117.0573	339
117.0591	289
118.0642	822
119.0672	357
119.0694	553
120.0794	999
121.0808	254
121.0825	216
121.088	196
