Mass spectrum: 2-Aminoethyl dihydrogen phosphate; LC-ESI-QTOF; MS2; CE: -10, -35, -60V;  [M-H]-
Name: 2-Aminoethyl dihydrogen phosphate
Class: NA
Formula: C2H8NO4P
Exact mass: 141.0191
SMILES: C(COP(=O)(O)O)N
InChI: InChI=1S/C2H8NO4P/c3-1-2-7-8(4,5)6/h1-3H2,(H2,4,5,6)
Instrument: TripleToF 5600; Sciex
Instrument type: LC-ESI-QTOF
Ms type: MS2
Ion mode: NEGATIVE
Ionization: ESI
Collision energy: -10, -35, -60V
Column name: Acquity CSHC18
Retention time: 0.731 min
Base peak: 140.0124
Precursor m/z: 140.0124
Precursor type: [M-H]-
Precursor intensity: 92813.75
m/z	relative intensity
78.9584	999
99.9233	11
105.0247	2
116.9266	8
140.0135	218
