Mass spectrum: Ginkgolic acid C13:0; LC-ESI-QFT; MS2; CE: 15,30,45 (NCE);  [2M-H]-
Name: Ginkgolic acid C13:0
Class: NA
Formula: C20H32O3
Exact mass: 320.2351
SMILES: CCCCCCCCCCCCCC1=C(C(O)=O)C(O)=CC=C1
InChI: InChI=1S/C20H32O3/c1-2-3-4-5-6-7-8-9-10-11-12-14-17-15-13-16-18(21)19(17)20(22)23/h13,15-16,21H,2-12,14H2,1H3,(H,22,23)
Instrument: QE Focus, Thermo Scientfic; UPLC I-Class, Waters
Instrument type: LC-ESI-QFT
Ms type: MS2
Ion mode: NEGATIVE
Ionization: ESI
Collision energy: 15,30,45 (NCE)
Column name: Acquity CSHC18
Retention time: 6.475 min
Base peak: 639.4633
Precursor m/z: 639.4633
Precursor type: [2M-H]-
Precursor intensity: 40334750
m/z	relative intensity
239.7546	999
