Mass spectrum: Cytidine 5'-monophosphate; LC-ESI-QTOF; MS2; CE: 18.45;  [M+Na]+
Name: Cytidine 5'-monophosphate
Class: NA
Formula: C9H14N3O8P
Exact mass: 323.0519
SMILES: C1=CN(C(=O)N=C1N)C2C(C(C(O2)COP(=O)(O)O)O)O
InChI: InChI=1S/C9H14N3O8P/c10-5-1-2-12(9(15)11-5)8-7(14)6(13)4(20-8)3-19-21(16,17)18/h1-2,4,6-8,13-14H,3H2,(H2,10,11,15)(H2,16,17,18)
Instrument: Bruker MicrOTOF-Q
Instrument type: LC-ESI-QTOF
Ms type: MS2
Ion mode: POSITIVE
Ionization: ESI
Collision energy: 18.45
Column name: Acquity CSHC18
Retention time: NA
Base peak: 346.0411
Precursor m/z: 346.0411
Precursor type: [M+Na]+
m/z	relative intensity
112.0448	17
119.0081	28
120.9648	128
134.0302	999
135.0315	49
166.0614	16
175.986	14
186.9802	14
192.9906	14
213.9991	41
216.986	28
226.0794	127
234.997	387
235.998	22
248.0619	38
266.0726	597
267.0777	67
303.0411	12
328.0282	15
346.0396	889
347.0406	97
