Mass spectrum: CYSTINE; LC-ESI-QTOF; MS2; CE: 10;  [M+H]+
Name: CYSTINE
Class: NA
Formula: C6H12N2O4S2
Exact mass: 240.0238
SMILES: N[C@@H](CSSC[C@H](N)C(O)=O)C(O)=O
InChI: InChI=1S/C6H12N2O4S2/c7-3(5(9)10)1-13-14-2-4(8)6(11)12/h3-4H,1-2,7-8H2,(H,9,10)(H,11,12)/t3-,4-/m0/s1
Instrument: Agilent 6530Â Q-TOF LC/MS
Instrument type: LC-ESI-QTOF
Ms type: MS2
Ion mode: POSITIVE
Ionization: ESI
Collision energy: 10
Column name: NA
Retention time: 0.200 min
Base peak: 241.03129
Precursor m/z: 241.03129
Precursor type: [M+H]+
Precursor intensity: 103.5
m/z	relative intensity
84.9564	539
101.0582	721
122.0284	999
151.9787	774
224.1492	785
