Mass spectrum: Formononetin; LC-ESI-ITFT; MS2; CE: 100;  [M+H]+
Name: Formononetin
Class: Phenylpropanoids and polyketides; Isoflavonoids; O-methylated isoflavonoids
Formula: C16H12O4
Exact mass: 268.07356
SMILES: COC1=CC=C(C=C1)C1=COC2=C(C=CC(O)=C2)C1=O
InChI: InChI=1S/C16H12O4/c1-19-12-5-2-10(3-6-12)14-9-20-15-8-11(17)4-7-13(15)16(14)18/h2-9,17H,1H3
Instrument: Thermo Scientific Q-Exactive Focus
Instrument type: LC-ESI-ITFT
Ms type: MS2
Ion mode: POSITIVE
Ionization: ESI
Collision energy: 100
Column name: Acquity CSHC18
Retention time: 2.305 min
Base peak: 269.08084
Precursor m/z: 269.08084
Precursor type: [M+H]+
m/z	relative intensity
51.0235	129
63.0234	600
65.039	135
75.0233	92
89.0389	999
95.0494	117
115.0543	801
139.0541	251
150.0462	93
152.0619	120
