Mass spectrum: Saccharopine; LC-ESI-ITFT; MS2; CE: 10;  [M-H]-
Name: Saccharopine
Class: Organic acids and derivatives; Carboxylic acids and derivatives; Amino acids, peptides, and analogues
Formula: C11H20N2O6
Exact mass: 276.13214
SMILES: N[C@@H](CCCCN[C@@H](CCC(O)=O)C(O)=O)C(O)=O
InChI: InChI=1S/C11H20N2O6/c12-7(10(16)17)3-1-2-6-13-8(11(18)19)4-5-9(14)15/h7-8,13H,1-6,12H2,(H,14,15)(H,16,17)(H,18,19)/t7-,8-/m0/s1
Instrument: Thermo Scientific Q-Exactive Focus
Instrument type: LC-ESI-ITFT
Ms type: MS2
Ion mode: NEGATIVE
Ionization: ESI
Collision energy: 10
Column name: Acquity CSHC18
Retention time: 0.360 min
Base peak: 275.12485
Precursor m/z: 275.12485
Precursor type: [M-H]-
m/z	relative intensity
84.0443	2
129.0184	7
145.0975	3
178.0864	4
196.0972	43
213.1238	15
231.1345	6
240.0875	13
257.1143	999
275.125	320
