Mass spectrum: Phosphoadenosine phosphosulfate; LC-ESI-QTOF; MS2; CE: -10, -35, -60V;  [M-H]-
Name: Phosphoadenosine phosphosulfate
Class: NA
Formula: C10H15N5O13P2S
Exact mass: 506.9862
SMILES: C1=NC(=C2C(=N1)N(C=N2)C3C(C(C(O3)COP(=O)(O)OS(=O)(=O)O)OP(=O)(O)O)O)N
InChI: InChI=1S/C10H15N5O13P2S/c11-8-5-9(13-2-12-8)15(3-14-5)10-6(16)7(27-29(17,18)19)4(26-10)1-25-30(20,21)28-31(22,23)24/h2-4,6-7,10,16H,1H2,(H,20,21)(H2,11,12,13)(H2,17,18,19)(H,22,23,24)
Instrument: TripleToF 5600; Sciex
Instrument type: LC-ESI-QTOF
Ms type: MS2
Ion mode: NEGATIVE
Ionization: ESI
Collision energy: -10, -35, -60V
Column name: Acquity CSHC18
Retention time: 16.421 min
Base peak: 505.9912
Precursor m/z: 505.9912
Precursor type: [M-H]-
Precursor intensity: 237636.2
m/z	relative intensity
78.9607	175
96.9718	12
134.051	281
135.0532	32
158.9284	310
174.9811	7
210.9996	26
214.0269	6
272.9665	60
290.9756	13
310.2085	1
328.0517	167
329.0599	25
346.0603	10
347.0774	1
408.016	49
424.6704	3
426.0301	999
427.0243	263
428.0284	55
505.9926	697
