Mass spectrum: 4-Methyl-2-oxovaleric acid; LC-ESI-QTOF; MS2; CE: -10, -35, -60V;  [M-H]-
Name: 4-Methyl-2-oxovaleric acid
Class: NA
Formula: C6H10O3
Exact mass: 130.0630
SMILES: CC(C)CC(=O)C(=O)O
InChI: InChI=1S/C6H10O3/c1-4(2)3-5(7)6(8)9/h4H,3H2,1-2H3,(H,8,9)
Instrument: TripleToF 5600; Sciex
Instrument type: LC-ESI-QTOF
Ms type: MS2
Ion mode: NEGATIVE
Ionization: ESI
Collision energy: -10, -35, -60V
Column name: Acquity CSHC18
Retention time: 10.826 min
Base peak: 129.0571
Precursor m/z: 129.0571
Precursor type: [M-H]-
Precursor intensity: 272503.3
m/z	relative intensity
85.0272	16
85.0636	7
101.0589	17
129.0566	999
