Mass spectrum: Procyanidin dimer A2; LC-ESI-QFT; MS2; CE: NCE_15_30_60;  [M-H]-
Name: Procyanidin dimer A2
Class: NA
Formula: C30H24O12
Exact mass: 576.1268
SMILES: C1C(C(OC2=C1C(=CC3=C2C4C(C(O3)(OC5=CC(=CC(=C45)O)O)C6=CC(=C(C=C6)O)O)O)O)C7=CC(=C(C=C7)O)O)O
InChI: InChI=1S/C30H24O12/c31-13-7-20(37)24-22(8-13)41-30(12-2-4-16(33)19(36)6-12)29(39)26(24)25-23(42-30)10-17(34)14-9-21(38)27(40-28(14)25)11-1-3-15(32)18(35)5-11/h1-8,10,21,26-27,29,31-39H,9H2
Instrument: Thermo_Qexactive_Plus
Instrument type: LC-ESI-QFT
Ms type: MS2
Ion mode: NEGATIVE
Ionization: ESI
Collision energy: NCE_15_30_60
Column name: Acquity CSHC18
Retention time: 4.646 min
Base peak: 575.1208
Precursor m/z: 575.1208
Precursor type: [M-H]-
Precursor intensity: 194573300
m/z	relative intensity
57.033	6
70.8224	6
76.94	7
83.0294	7
87.4815	7
93.0324	7
94.3671	7
97.0284	8
109.0285	8
121.0289	8
122.0365	8
123.0439	9
125.0236	9
126.0267	9
135.0438	9
137.0235	9
139.0391	9
147.0237	10
149.0232	10
151.0241	10
159.0449	10
160.0158	10
161.0375	10
162.0294	10
163.0156	10
164.0115	10
165.0202	10
167.0341	11
175.0398	11
176.0097	11
177.0178	11
179.0343	11
182.0565	11
185.0616	11
187.0401	11
188.0475	11
189.0381	12
190.0258	12
197.0604	12
199.0402	12
201.0346	12
202.0602	12
203.0389	12
204.0237	12
205.0335	12
213.0546	12
215.0498	13
217.0348	13
218.0383	13
219.048	13
225.0544	13
227.0508	13
229.0506	13
231.0296	13
241.0502	13
242.036	14
243.0471	14
244.0363	14
245.0656	14
246.0684	14
247.0599	14
253.0509	14
255.0479	14
256.0381	15
257.0594	15
258.0511	15
259.0478	15
265.0495	16
267.0313	16
269.0454	16
271.0431	16
272.032	16
273.0421	16
281.0552	16
282.0546	17
283.0434	17
284.0318	17
285.0415	17
286.0479	17
287.0488	17
288.0641	18
289.0733	19
290.0755	20
297.041	20
298.0477	21
299.0557	21
300.0269	22
301.0523	22
307.0593	22
308.0489	23
309.0406	23
313.0553	23
319.0612	23
320.0691	25
321.0762	25
325.0361	26
326.0457	26
327.0549	28
328.0557	30
339.0704	31
347.0553	31
361.071	32
363.0871	33
365.0669	33
375.0524	34
379.0839	34
381.0976	35
387.0515	35
388.0612	38
389.0674	40
403.0832	44
405.1019	44
407.0772	44
408.082	45
409.0908	46
411.0725	49
413.0712	50
415.0451	50
421.0935	51
423.0719	54
424.0763	58
431.0782	59
434.0606	68
435.0711	70
436.0748	75
437.0914	75
447.0741	76
448.0768	81
449.0814	84
450.0866	88
452.0754	90
453.0849	93
454.0878	100
471.1094	106
472.1143	123
495.111	141
513.1165	144
531.1286	193
539.1068	312
540.1004	374
557.1073	546
575.1232	999
