Mass spectrum: 3-methoxy Limaprost; ESI-TOF; MS2; CE: 0.6458333;  [M+H]+
Name: 3-methoxy Limaprost
Class: NA
Formula: C23H40O6
Exact mass: 412.28249
SMILES: O[C@@H]([C@H](/C=C/[C@@H](O)C[C@@H](C)CCCC)[C@H]1CCCCC(OC)CC(O)=O)CC1=O
InChI: InChI=1S/C23H40O6/c1-4-5-8-16(2)13-17(24)11-12-20-19(21(25)15-22(20)26)10-7-6-9-18(29-3)14-23(27)28/h11-12,16-20,22,24,26H,4-10,13-15H2,1-3H3,(H,27,28)/b12-11+/t16-,17+,18?,19+,20+,22+/m0/s1
Instrument: waters xevo g2 TOF
Instrument type: ESI-TOF
Ms type: MS2
Ion mode: POSITIVE
Ionization: ESI
Collision energy: 0.6458333
Column name: Acquity CSHC18
Retention time: 3.817 min
Base peak: 413.29049
Precursor m/z: 413.29049
Precursor type: [M+H]+
m/z	relative intensity
83.0853	154
95.086	477
97.1028	66
123.0814	137
137.1333	120
141.0714	116
143.0853	191
144.0905	38
147.0816	362
151.1148	45
155.0876	229
157.1031	285
161.1375	182
163.149	86
175.1123	176
181.1041	37
185.1151	155
187.1112	212
189.1613	63
191.1079	68
199.1136	69
203.1056	137
211.1133	112
213.1266	44
215.1424	52
223.0629	65
226.1297	36
229.1394	40
243.174	88
245.1517	30
257.226	148
281.2254	115
291.2198	76
300.2367	57
309.2203	380
317.2478	324
327.2326	999
345.2438	559
346.2444	78
357.2099	576
358.2195	94
359.2574	381
373.18	243
376.2429	383
383.1995	57
400.1745	39
402.2011	50
403.2478	43
404.1935	32
414.2527	744
414.7531	320
415.2503	83
