Mass spectrum: 3-METHOXY-4-HYDROXYMANDELATE; LC-ESI-QTOF; MS2; CE: 20;  [M-H]-
Name: 3-METHOXY-4-HYDROXYMANDELATE
Class: NA
Formula: C9H10O5
Exact mass: 198.05282
SMILES: COC1=C(O)C=CC(=C1)[C@H](O)C(O)=O
InChI: InChI=1S/C9H10O5/c1-14-7-4-5(2-3-6(7)10)8(11)9(12)13/h2-4,8,10-11H,1H3,(H,12,13)/t8-/m0/s1
Instrument: Agilent 6530Â Q-TOF LC/MS
Instrument type: LC-ESI-QTOF
Ms type: MS2
Ion mode: NEGATIVE
Ionization: ESI
Collision energy: 20
Column name: NA
Retention time: 0.200 min
Base peak: 197.04568
Precursor m/z: 197.04568
Precursor type: [M-H]-
Precursor intensity: 121
m/z	relative intensity
108.0175	129
136.0166	145
137.0552	163
138.027	999
