Mass spectrum: 4-ACETAMIDOBUTANOATE; LC-ESI-QTOF; MS2; CE: 10;  [M+H]+
Name: 4-ACETAMIDOBUTANOATE
Class: NA
Formula: C6H11NO3
Exact mass: 145.0739
SMILES: CC(=O)NCCCC(O)=O
InChI: InChI=1S/C6H11NO3/c1-5(8)7-4-2-3-6(9)10/h2-4H2,1H3,(H,7,8)(H,9,10)
Instrument: Agilent 6530Â Q-TOF LC/MS
Instrument type: LC-ESI-QTOF
Ms type: MS2
Ion mode: POSITIVE
Ionization: ESI
Collision energy: 10
Column name: NA
Retention time: 0.200 min
Base peak: 146.08289
Precursor m/z: 146.08289
Precursor type: [M+H]+
Precursor intensity: 33.5
m/z	relative intensity
43.0352	999
