Mass spectrum: Prostaglandin E2 methyl ester; ESI-TOF; MS2; CE: 0.6458333;  [M+H]+
Name: Prostaglandin E2 methyl ester
Class: NA
Formula: C21H34O5
Exact mass: 366.24062
SMILES: O=C1[C@H](C/C=C\CCCC(OC)=O)[C@@H](/C=C/[C@@H](O)CCCCC)[C@H](O)C1
InChI: InChI=1S/C21H34O5/c1-3-4-7-10-16(22)13-14-18-17(19(23)15-20(18)24)11-8-5-6-9-12-21(25)26-2/h5,8,13-14,16-18,20,22,24H,3-4,6-7,9-12,15H2,1-2H3/b8-5-,14-13+/t16-,17+,18+,20+/m0/s1
Instrument: waters xevo g2 TOF
Instrument type: ESI-TOF
Ms type: MS2
Ion mode: POSITIVE
Ionization: ESI
Collision energy: 0.6458333
Column name: Acquity CSHC18
Retention time: 3.965 min
Base peak: 367.24862
Precursor m/z: 367.24862
Precursor type: [M+H]+
m/z	relative intensity
67.0536	214
79.038	390
81.0701	352
91.0551	598
93.0705	653
95.0862	456
105.0707	831
107.0857	345
109.065	154
111.0798	55
117.0712	559
119.0867	654
121.1017	444
123.0812	103
128.0639	133
129.0708	692
131.0865	999
132.0927	68
133.0479	284
135.0799	219
141.0711	278
143.086	475
145.1015	563
147.0807	447
149.1324	108
155.0852	446
157.1012	405
159.1172	387
161.0968	386
163.1114	150
168.0918	48
169.1026	657
171.1171	377
173.1144	387
175.112	161
179.0861	138
183.1181	444
187.1139	290
189.1079	84
197.1412	175
199.0688	329
200.0262	55
201.0756	211
203.1045	91
207.1096	156
215.1425	404
225.1247	128
227.1782	272
235.062	105
245.1888	469
246.1898	73
247.2067	125
253.1927	217
261.0579	351
263.1245	121
265.073	61
271.2048	283
272.2051	57
273.1843	227
279.0843	48
281.1898	594
293.0762	59
299.2003	944
300.2031	127
317.2109	189
331.2281	208
332.2366	52
333.2233	137
337.1442	91
349.2445	30
355.1562	65
368.2102	331
368.7132	133
