Mass spectrum: Sorbitol; LC-ESI-QTOF; MS2; CE: 15.00;  [M+H]+
Name: Sorbitol
Class: NA
Formula: C6H14O6
Exact mass: 182.0790
SMILES: C(C(C(C(C(CO)O)O)O)O)O
InChI: InChI=1S/C6H14O6/c7-1-3(9)5(11)6(12)4(10)2-8/h3-12H,1-2H2
Instrument: Bruker MicrOTOF-Q
Instrument type: LC-ESI-QTOF
Ms type: MS2
Ion mode: POSITIVE
Ionization: ESI
Collision energy: 15.00
Column name: Acquity CSHC18
Retention time: NA
Base peak: 183.0863
Precursor m/z: 183.0863
Precursor type: [M+H]+
m/z	relative intensity
81.03	35
99.04	324
111.04	999
117.05	152
129.05	781
147.06	96
148.09	38
165.07	44
183.09	39
