Mass spectrum: Testosterone; LC-ESI-ITFT; MS2; CE: 100;  [M+H]+
Name: Testosterone
Class: Lipids and lipid-like molecules; Steroids and steroid derivatives; Androstane steroids
Formula: C19H28O2
Exact mass: 288.20893
SMILES: [H][C@@]12CC[C@H](O)[C@@]1(C)CC[C@@]1([H])[C@@]2([H])CCC2=CC(=O)CC[C@]12C
InChI: InChI=1S/C19H28O2/c1-18-9-7-13(20)11-12(18)3-4-14-15-5-6-17(21)19(15,2)10-8-16(14)18/h11,14-17,21H,3-10H2,1-2H3/t14-,15-,16-,17-,18-,19-/m0/s1
Instrument: Thermo Scientific Q-Exactive Focus
Instrument type: LC-ESI-ITFT
Ms type: MS2
Ion mode: POSITIVE
Ionization: ESI
Collision energy: 100
Column name: Acquity CSHC18
Retention time: 2.308 min
Base peak: 289.21622
Precursor m/z: 289.21622
Precursor type: [M+H]+
m/z	relative intensity
51.0235	660
53.0028	239
53.0392	999
55.0184	291
65.0391	784
77.039	244
79.0547	639
91.0546	625
95.0495	880
115.0544	291
