Mass spectrum: gnetin H; LC-ESI-ITFT; MS2; CE: 0.3;  [M-H]-
Name: gnetin H
Class: stilbenes
Formula: C42H32O9
Exact mass: 680.2046
SMILES: C1=CC(=CC=C1C=CC2=C3C(C(OC3=CC4=C2C(C(O4)C5=CC=C(C=C5)O)C6=CC(=CC(=C6)O)O)C7=CC=C(C=C7)O)C8=CC(=CC(=C8)O)O)O
InChI: InChI=1S/C42H32O9/c43-27-8-1-22(2-9-27)3-14-34-39-35(50-41(23-4-10-28(44)11-5-23)37(39)25-15-30(46)19-31(47)16-25)21-36-40(34)38(26-17-32(48)20-33(49)18-26)42(51-36)24-6-12-29(45)13-7-24/h1-21,37-38,41-49H
Instrument: LTQ-Orbitrap XL hybrid mass spectrometer (Thermo Scientific)
Instrument type: LC-ESI-ITFT
Ms type: MS2
Ion mode: NEGATIVE
Ionization: ESI
Collision energy: 0.3
Column name: Acquity CSHC18
Retention time: 8.998 min
Base peak: 679.1951
Precursor m/z: 679.1951
Precursor type: [M-H]-
Precursor intensity: 2519539
m/z	relative intensity
176.746	7
197.4689	9
211.3978	8
242.7012	9
271.314	8
447.0863	101
451.108	12
465.0978	15
467.1136	22
478.0933	9
479.115	23
491.1116	39
559.1403	9
573.1556	47
585.154	999
595.1661	13
635.1851	11
637.1832	21
661.186	52
