Mass spectrum: 7-methoxy-11-hydroxy ferruginol; ESI-QTOF; MS2; CE: -55V;  [M-H]-
Name: 7-methoxy-11-hydroxy ferruginol
Class: phenolic diterpene
Formula: C21H32O3
Exact mass: 332.2351
SMILES: CC(C)C(C(O)=C1O)=CC2=C1C3(C)C(CC2OC)C(C)(C)CCC3
InChI: InChI=1S/C21H32O3/c1-12(2)13-10-14-15(24-6)11-16-20(3,4)8-7-9-21(16,5)17(14)19(23)18(13)22/h10,12,15-16,22-23H,7-9,11H2,1-6H3
Instrument: TripleToF 5600, Sciex
Instrument type: ESI-QTOF
Ms type: MS2
Ion mode: NEGATIVE
Ionization: ESI
Collision energy: -55V
Column name: Acquity CSHC18
Retention time: 15.364 min
Base peak: 331.2281
Precursor m/z: 331.2281
Precursor type: [M-H]-
Precursor intensity: 2432237
m/z	relative intensity
184.0752	156
241.1168	245
251.1024	289
253.1072	306
298.1907	495
330.2111	999
