Mass spectrum: Apigenin; LC-ESI-QTOF; MS2; CE: 50eV;  [M+H]+
Name: Apigenin
Class: Flavone
Formula: C15H10O5
Exact mass: 270.0528
SMILES: C1=CC(=CC=C1C2=CC(=O)C3=C(C=C(C=C3O2)O)O)O
InChI: InChI=1S/C15H10O5/c16-9-3-1-8(2-4-9)13-7-12(19)15-11(18)5-10(17)6-14(15)20-13/h1-7,16-18H
Instrument: TIMS-TOF Pro, Bruker Daltonik; Elute UHPLC System, Bruker Daltonik
Instrument type: LC-ESI-QTOF
Ms type: MS2
Ion mode: POSITIVE
Ionization: ESI
Collision energy: 50eV
Column name: Acquity CSHC18
Retention time: 7.341 min
Base peak: 271.0586
Precursor m/z: 271.0586
Precursor type: [M+H]+
Precursor intensity: 612437.2
m/z	relative intensity
19.0469	2
41.0031	1
63.0244	1
65.0392	5
67.0181	5
68.9964	15
71.5204	2
74.5097	1
91.0537	15
107.0475	3
115.0533	6
119.0492	15
121.0292	7
131.0139	1
131.0484	5
140.058	1
141.07	3
145.0284	11
152.9936	5
153.0171	38
154.0217	4
156.0505	2
164.9359	2
168.058	2
169.0654	1
185.0582	1
197.0461	1
215.9931	1
228.3437	1
253.044	1
271.0194	8
271.056	999
271.5264	10
