Mass spectrum: EPINEPHRINE; LC-ESI-QFT; MS2; CE: 30eV;  [M+H]+
Name: EPINEPHRINE
Class: NA
Formula: C9H13NO3
Exact mass: 183.08954
SMILES: CNC[C@H](O)C1=CC=C(O)C(O)=C1
InChI: InChI=1S/C9H13NO3/c1-10-5-9(13)6-2-3-7(11)8(12)4-6/h2-4,9-13H,5H2,1H3/t9-/m0/s1
Instrument: Q-Exactive Orbitrap, Thermo Scientfic; Ultimate 3000 HPLC, Thermo Scientfic
Instrument type: LC-ESI-QFT
Ms type: MS2
Ion mode: POSITIVE
Ionization: ESI
Collision energy: 30eV
Column name: Acquity CSHC18
Retention time: 0.629 min
Base peak: 184.0968
Precursor m/z: 184.0968
Precursor type: [M+H]+
Precursor intensity: 187
m/z	relative intensity
56.0504	1
56.9431	4
57.0582	15
58.066	11
72.9379	5
90.9484	1
91.055	1
97.9695	7
98.9618	1
98.9699	1
99.9698	6
107.0498	26
109.0289	1
113.9643	80
114.9487	1
114.9641	12
114.9682	14
115.9649	2
116.9725	24
117.9803	198
120.0814	17
123.0445	3
125.0605	1
125.9727	1
131.9748	40
132.9594	1
132.9671	1
132.9742	6
132.9784	4
133.0527	3
133.9594	3
135.0445	45
135.9908	4
136.0479	1
137.0603	8
139.9883	13
140.9959	1
141.9591	16
142.9623	3
143.9592	10
148.0761	18
151.0634	14
155.9751	3
156.9756	5
157.9738	1
159.9697	20
160.9723	4
161.97	29
166.0867	999
167.0836	1
167.09	38
177.9568	1
178.9568	1
179.9806	4
184.0762	1
184.0977	1
