Mass spectrum: Guanidoacetic acid; ESI-TOF; MS2; CE: 6.0000000;  [M+H]+
Name: Guanidoacetic acid
Class: NA
Formula: C3H7N3O2
Exact mass: 117.05383
SMILES: NC(=N)NCC(O)=O
InChI: InChI=1S/C3H7N3O2/c4-3(5)6-1-2(7)8/h1H2,(H,7,8)(H4,4,5,6)
Instrument: waters xevo g2 TOF
Instrument type: ESI-TOF
Ms type: MS2
Ion mode: POSITIVE
Ionization: ESI
Collision energy: 6.0000000
Column name: Acquity CSHC18
Retention time: 0.501 min
Base peak: 118.06183
Precursor m/z: 118.06183
Precursor type: [M+H]+
m/z	relative intensity
72.0569	2
76.0405	17
94.9677	1
96.9617	94
98.9628	8
100.0516	3
101.0357	54
115.9654	5
117.9799	5
118.062	999
119.0642	48
120.0662	4
132.0777	2
140.044	9
140.996	34
142.9913	11
147.953	2
159.9702	13
170.9938	7
186.9571	3
199.9753	1
202.0161	1
235.1138	8
258.1713	6
276.8974	1
288.0298	1
363.7882	1
374.1487	2
405.0791	8
406.0867	3
522.1366	4
