Mass spectrum: acetyl-CoA; LC-ESI-QTOF; MS2; CE: -10, -35, -60V;  [M-H]-
Name: acetyl-CoA
Class: NA
Formula: C23H38N7O17P3S
Exact mass: 809.1258
SMILES: CC(=O)SCCNC(=O)CCNC(=O)C(C(C)(C)COP(=O)(O)OP(=O)(O)OCC1C(C(C(O1)N2C=NC3=C(N=CN=C32)N)O)OP(=O)(O)O)O
InChI: InChI=1S/C23H38N7O17P3S/c1-12(31)51-7-6-25-14(32)4-5-26-21(35)18(34)23(2,3)9-44-50(41,42)47-49(39,40)43-8-13-17(46-48(36,37)38)16(33)22(45-13)30-11-29-15-19(24)27-10-28-20(15)30/h10-11,13,16-18,22,33-34H,4-9H2,1-3H3,(H,25,32)(H,26,35)(H,39,40)(H,41,42)(H2,24,27,28)(H2,36,37,38)
Instrument: TripleToF 5600; Sciex
Instrument type: LC-ESI-QTOF
Ms type: MS2
Ion mode: NEGATIVE
Ionization: ESI
Collision energy: -10, -35, -60V
Column name: Acquity CSHC18
Retention time: 17.075 min
Base peak: 808.1318
Precursor m/z: 808.1318
Precursor type: [M-H]-
Precursor intensity: 345488.9
m/z	relative intensity
78.9585	80
96.968	12
134.0482	69
158.9289	150
174.9816	19
176.9367	12
192.9933	6
214.0172	7
242.9863	5
260.9895	14
270.9907	18
272.9579	125
273.9664	8
288.9979	2
290.9715	11
310.0403	6
328.0552	92
334.9254	6
339.0823	40
340.0839	5
346.0665	44
352.9229	8
357.0936	10
381.093	117
382.0912	23
385.033	2
399.0954	23
401.1116	2
408.02	343
409.0215	80
410.0214	15
419.0551	5
424.6686	1
426.0283	222
427.0371	37
428.0295	6
429.0465	1
443.0396	21
445.0387	1
461.0598	235
462.0636	46
463.0625	22
464.0717	2
479.0682	70
480.076	11
481.057	5
487.9835	18
505.9907	5
510.0859	10
656.0503	1
673.0598	15
710.1487	10
728.1573	137
729.1633	42
730.17	14
790.0817	4
790.1095	10
790.1571	4
805.5769	6
806.603	1
807.1243	2
808.1353	999
