Mass spectrum: N-ACETYLASPARAGINE; LC-ESI-QTOF; MS2; CE: 40;  [M-H]-
Name: N-ACETYLASPARAGINE
Class: NA
Formula: C6H10N2O4
Exact mass: 174.06406
SMILES: CC(=O)N[C@@H](CC(N)=O)C(O)=O
InChI: InChI=1S/C6H10N2O4/c1-3(9)8-4(6(11)12)2-5(7)10/h4H,2H2,1H3,(H2,7,10)(H,8,9)(H,11,12)/t4-/m0/s1
Instrument: Agilent 6530Â Q-TOF LC/MS
Instrument type: LC-ESI-QTOF
Ms type: MS2
Ion mode: NEGATIVE
Ionization: ESI
Collision energy: 40
Column name: NA
Retention time: 0.200 min
Base peak: 173.05986
Precursor m/z: 173.05986
Precursor type: [M-H]-
Precursor intensity: 163
m/z	relative intensity
40.0195	154
41.0069	203
42.0118	318
58.0354	999
