Mass spectrum: L-Tryptophan; LC-ESI-QTOF; MS2; CE: 15.00;  [M+H]+
Name: L-Tryptophan
Class: NA
Formula: C11H12N2O2
Exact mass: 204.0899
SMILES: C1=CC=C2C(=C1)C(=CN2)CC(C(=O)O)N
InChI: InChI=1S/C11H12N2O2/c12-9(11(14)15)5-7-6-13-10-4-2-1-3-8(7)10/h1-4,6,9,13H,5,12H2,(H,14,15)
Instrument: Bruker MicrOTOF-Q
Instrument type: LC-ESI-QTOF
Ms type: MS2
Ion mode: POSITIVE
Ionization: ESI
Collision energy: 15.00
Column name: Acquity CSHC18
Retention time: NA
Base peak: 205.0972
Precursor m/z: 205.0972
Precursor type: [M+H]+
m/z	relative intensity
118.0617	23
130.063	26
132.0781	35
142.0625	37
143.0699	76
144.0785	81
145.0808	87
146.0582	141
147.0608	169
159.0897	199
170.0594	239
188.0697	685
189.0729	999
