Mass spectrum: Diheptadecyl phosphate; LC-ESI-QTOF; MS2; CE: 20 / 50;  [M-H]-
Name: Diheptadecyl phosphate
Class: NA
Formula: C34H71O4P
Exact mass: 574.50900
SMILES: CCCCCCCCCCCCCCCCCOP(=O)(O)OCCCCCCCCCCCCCCCCC
InChI: InChI=1S/C34H71O4P/c1-3-5-7-9-11-13-15-17-19-21-23-25-27-29-31-33-37-39(35,36)38-34-32-30-28-26-24-22-20-18-16-14-12-10-8-6-4-2/h3-34H2,1-2H3,(H,35,36)
Instrument: impact II
Instrument type: LC-ESI-QTOF
Ms type: MS2
Ion mode: NEGATIVE
Ionization: ESI
Collision energy: 20 / 50
Column name: Acquity CSHC18
Retention time: 1.246 min
Base peak: 573.50210
Precursor m/z: 573.50210
Precursor type: [M-H]-
m/z	relative intensity
78.9592	999
281.1245	125
335.2355	282
573.4997	261
574.5042	101
