Mass spectrum: HISTIDINE; LC-ESI-QFT; MS2; CE: 30eV;  [M+H]+
Name: HISTIDINE
Class: NA
Formula: C6H9N3O2
Exact mass: 155.06948
SMILES: N[C@@H](CC1=CNC=N1)C(O)=O
InChI: InChI=1S/C6H9N3O2/c7-5(6(10)11)1-4-2-8-3-9-4/h2-3,5H,1,7H2,(H,8,9)(H,10,11)/t5-/m0/s1
Instrument: Q-Exactive Orbitrap, Thermo Scientfic; Ultimate 3000 HPLC, Thermo Scientfic
Instrument type: LC-ESI-QFT
Ms type: MS2
Ion mode: POSITIVE
Ionization: ESI
Collision energy: 30eV
Column name: Acquity CSHC18
Retention time: 0.538 min
Base peak: 156.0768
Precursor m/z: 156.0768
Precursor type: [M+H]+
Precursor intensity: 140
m/z	relative intensity
51.594	7
55.744	7
56.0503	44
58.4228	7
62.6957	8
64.2828	7
69.0707	10
69.2978	8
71.6159	8
75.78	8
81.0454	18
82.0532	153
83.0611	409
93.0453	234
94.6923	9
95.061	999
111.0559	60
111.0689	59
111.0751	309
111.8913	10
112.0875	22
112.6484	9
114.9719	9
125.2531	9
129.6452	9
130.6461	9
134.5125	10
138.0528	14
138.0665	45
139.0505	21
157.0745	21
157.0803	119
