Mass spectrum: Methyl jasmonate; LC-ESI-ITFT; MS2; CE: 45eV;  [M+H]+
Name: Methyl jasmonate
Class: oxylipin
Formula: C13H20O3
Exact mass: 224.1412
SMILES: CCC=CCC1C(CCC1=O)CC(=O)OC
InChI: InChI=1S/C13H20O3/c1-3-4-5-6-11-10(7-8-12(11)14)9-13(15)16-2/h4-5,10-11H,3,6-9H2,1-2H3
Instrument: LTQ Orbitrap XL, Thermo Scientfic; Dionex Ultimate 300
Instrument type: LC-ESI-ITFT
Ms type: MS2
Ion mode: POSITIVE
Ionization: ESI
Collision energy: 45eV
Column name: Alltima C18
Retention time: 21.09 min
Base peak: 225.1479
Precursor m/z: 225.1479
Precursor type: [M+H]+
m/z	relative intensity
119.0208	5
128.9187	1
141.048	2
147.014	266
165.0257	48
181.0356	12
193.0382	335
207.0484	999
