Mass spectrum: Dehydrocostuslacton-Glutathione; LC-ESI-ITFT; MS2; CE: 50eV;  [M+H]+
Name: Dehydrocostuslacton-Glutathione
Class: Sesquiterpenelactone; Guaianolide
Formula: C25H35N3O8S
Exact mass: 537.2145
SMILES: O=C(O)[C@@H](N)CCC(=O)N[C@@H](CSCC2C(=O)O[C@@H]3C1C(CCC1=C)C(=C)CC[C@@H]23)C(=O)NCC(=O)O
InChI: InChI=1S/C25H35N3O8S/c1-12-3-6-15-16(25(35)36-22(15)21-13(2)4-5-14(12)21)10-37-11-18(23(32)27-9-20(30)31)28-19(29)8-7-17(26)24(33)34/h14-18,21-22H,1-11,26H2,(H,27,32)(H,28,29)(H,30,31)(H,33,34)/t14?,15-,16?,17-,18-,21?,22-/m0/s1
Instrument: Q Exactive Plus, ThermoFisher Scientific
Instrument type: LC-ESI-ITFT
Ms type: MS2
Ion mode: POSITIVE
Ionization: ESI
Collision energy: 50eV
Column name: Acquity CSHC18
Retention time: 6.770 min
Base peak: 538.2214
Precursor m/z: 538.2214
Precursor type: [M+H]+
Precursor intensity: 4763553000
m/z	relative intensity
68.4148	75
68.4191	153
70.0294	44
76.0224	46
81.0707	65
84.0455	59
93.07	19
95.0856	16
105.0699	25
119.0859	17
129.0665	101
130.0504	45
131.0862	75
133.102	17
143.0862	92
145.0609	19
145.1023	20
155.0837	12
157.1014	208
159.1172	999
161.0422	49
161.1333	50
162.0216	25
163.0574	15
171.1174	18
174.0222	14
179.0494	21
181.0613	27
183.1169	83
185.1332	523
187.0548	12
187.1492	220
189.0333	12
195.117	93
203.1428	11
211.1111	18
213.1267	540
217.1032	154
231.1386	533
233.0572	11
243.1209	22
243.8416	11
245.0993	120
257.0766	14
263.1108	240
271.1141	12
288.1428	282
289.1248	16
299.9926	11
306.1522	494
306.3964	11
346.1476	58
374.1378	19
378.7304	12
391.164	62
392.1486	123
409.1756	585
417.1806	26
463.1942	447
538.2192	45
