Mass spectrum: URIDINE DIPHOSPHATE GLUCOSE; LC-ESI-QTOF; MS2; CE: 40;  [M-H]-
Name: URIDINE DIPHOSPHATE GLUCOSE
Class: NA
Formula: C15H24N2O17P2
Exact mass: 566.05502
SMILES: OC[C@H]1O[C@H](OP(O)(=O)OP(O)(=O)OC[C@H]2O[C@H]([C@H](O)[C@@H]2O)N2C=CC(=O)NC2=O)[C@H](O)[C@@H](O)[C@@H]1O
InChI: InChI=1S/C15H24N2O17P2/c18-3-5-8(20)10(22)12(24)14(32-5)33-36(28,29)34-35(26,27)30-4-6-9(21)11(23)13(31-6)17-2-1-7(19)16-15(17)25/h1-2,5-6,8-14,18,20-24H,3-4H2,(H,26,27)(H,28,29)(H,16,19,25)/t5-,6-,8-,9-,10+,11-,12-,13-,14-/m1/s1
Instrument: Agilent 6530Â Q-TOF LC/MS
Instrument type: LC-ESI-QTOF
Ms type: MS2
Ion mode: NEGATIVE
Ionization: ESI
Collision energy: 40
Column name: NA
Retention time: 0.200 min
Base peak: 565.04873
Precursor m/z: 565.04873
Precursor type: [M-H]-
Precursor intensity: 146
m/z	relative intensity
78.9758	117
96.9846	136
111.0239	137
138.9789	141
150.9803	155
158.9355	162
176.9352	218
211.0053	229
241.0247	296
272.9688	339
280.0249	379
320.9765	567
323.05	702
384.982	999
