Mass spectrum: Folic acid; LC-ESI-QTOF; MS2; CE: 30;  [M-H]-
Name: Folic acid
Class: NA
Formula: C19H19N7O6
Exact mass: 441.1397
SMILES: C1=CC(=CC=C1C(=O)NC(CCC(=O)O)C(=O)O)NCC2=CN=C3C(=N2)C(=O)NC(=N3)N
InChI: InChI=1S/C19H19N7O6/c20-19-25-15-14(17(30)26-19)23-11(8-22-15)7-21-10-3-1-9(2-4-10)16(29)24-12(18(31)32)5-6-13(27)28/h1-4,8,12,21H,5-7H2,(H,24,29)(H,27,28)(H,31,32)(H3,20,22,25,26,30)
Instrument: impact II
Instrument type: LC-ESI-QTOF
Ms type: MS2
Ion mode: NEGATIVE
Ionization: ESI
Collision energy: 30
Column name: Acquity CSHC18
Retention time: 1.710 min
Base peak: 440.1328
Precursor m/z: 440.1328
Precursor type: [M-H]-
m/z	relative intensity
128.0354	132
132.0433	367
146.0455	129
175.0497	999
176.0557	233
221.0937	285
248.9727	316
311.0889	498
353.1372	164
378.1325	140
396.1429	490
397.1461	164
440.1324	133
