Mass spectrum: Eupasserin, desacetyl; LC-ESI-ITFT; MS2; CE: 50eV;  [M+H]+
Name: Eupasserin, desacetyl
Class: Sesquiterpenelactone; Germacrolide
Formula: C20H26O6
Exact mass: 362.1729
SMILES: C/C=C(\CO)/C(=O)O[C@@H]1C/C(=C\[C@H](C/C(=C\[C@@H]2[C@@H]1C(=C)C(=O)O2)/C)O)/C
InChI: InChI=1S/C20H26O6/c1-5-14(10-21)20(24)26-17-9-12(3)7-15(22)6-11(2)8-16-18(17)13(4)19(23)25-16/h5,7-8,15-18,21-22H,4,6,9-10H2,1-3H3/b11-8-,12-7-,14-5+/t15-,16+,17+,18-/m0/s1
Instrument: Q Exactive Plus, ThermoFisher Scientific
Instrument type: LC-ESI-ITFT
Ms type: MS2
Ion mode: POSITIVE
Ionization: ESI
Collision energy: 50eV
Column name: Acquity CSHC18
Retention time: 5.017 min
Base peak: 363.1806
Precursor m/z: 363.1806
Precursor type: [M+H]+
Precursor intensity: 47379700
m/z	relative intensity
53.0396	28
64.512	19
70.1091	34
85.0651	89
91.0549	32
93.0704	36
95.0499	377
99.0439	84
105.07	93
107.0864	30
113.0595	19
117.0706	422
119.0857	40
131.0857	165
135.0806	105
143.0851	288
145.0648	144
145.1012	33
155.0859	172
157.1019	393
159.0796	40
159.1177	41
163.0754	100
168.0925	263
171.1174	43
173.1329	118
181.1007	165
183.1165	999
193.1007	209
196.087	31
201.1276	39
208.3646	24
211.1127	189
229.1207	71
236.2875	24
