Mass spectrum: Xanthohumol; LC-ESI-QTOF; MS2; CE: 19.14;  [M+H]+
Name: Xanthohumol
Class: NA
Formula: C21H22O5
Exact mass: 354.1467
SMILES: CC(=CCC1=C(C(=C(C=C1O)OC)C(=O)C=CC2=CC=C(C=C2)O)O)C
InChI: InChI=1S/C21H22O5/c1-13(2)4-10-16-18(24)12-19(26-3)20(21(16)25)17(23)11-7-14-5-8-15(22)9-6-14/h4-9,11-12,22,24-25H,10H2,1-3H3
Instrument: Bruker MicrOTOF-Q
Instrument type: LC-ESI-QTOF
Ms type: MS2
Ion mode: POSITIVE
Ionization: ESI
Collision energy: 19.14
Column name: Acquity CSHC18
Retention time: NA
Base peak: 355.1540
Precursor m/z: 355.1540
Precursor type: [M+H]+
m/z	relative intensity
179.0388	13
180.0388	17
181.0401	39
257.0826	73
299.0935	175
300.0976	999
