Mass spectrum: lactucopicrin; ESI-QTOF; MS2; CE: 25V ± 15V CES;  [M+H]+
Name: lactucopicrin
Class: Sesquiterpene lactone
Formula: C23H22O7
Exact mass: 410.1366
SMILES: CC1=C2C(C3C(C(C1)OC(=O)CC4=CC=C(C=C4)O)C(=C)C(=O)O3)C(=CC2=O)CO
InChI: InChI=1S/C23H22O7/c1-11-7-17(29-18(27)8-13-3-5-15(25)6-4-13)20-12(2)23(28)30-22(20)21-14(10-24)9-16(26)19(11)21/h3-6,9,17,20-22,24-25H,2,7-8,10H2,1H3
Instrument: TripleToF 5600, Sciex
Instrument type: ESI-QTOF
Ms type: MS2
Ion mode: POSITIVE
Ionization: ESI
Collision energy: 25V ± 15V CES
Column name: Acquity CSHC18
Retention time: 8.107 min
Base peak: 411.1466
Precursor m/z: 411.1466
Precursor type: [M+H]+
Precursor intensity: 210416.9
m/z	relative intensity
105.0769	3
109.0278	50
135.0752	15
141.0665	13
142.0743	28
143.084	33
152.059	12
153.0651	13
155.082	26
157.0661	108
157.0979	108
158.0655	22
159.0753	65
160.0864	8
163.076	32
165.0687	11
166.0715	8
167.0827	87
169.0997	35
170.074	45
171.0752	49
174.0702	12
175.0718	88
177.0706	13
179.0807	14
182.0723	12
183.0833	51
184.0856	19
185.0618	290
185.0944	290
186.0964	54
187.0741	103
187.105	103
188.0795	16
190.0634	4
195.0804	133
196.0794	28
197.0928	35
198.0631	65
199.0757	48
201.0865	12
201.1046	12
203.0934	69
205.0941	17
211.0728	13
212.4204	6
213.0938	398
214.0986	92
215.1057	63
223.0772	27
226.0622	29
229.0884	15
231.0906	88
231.1013	88
232.0982	16
241.0832	211
242.0859	49
243.0864	20
258.2929	18
259.099	999
260.1044	320
261.0889	229
261.1117	229
262.1232	43
409.204	1
411.1425	107
412.1535	59
