Mass spectrum: Glucose-6-phosphate; LC-ESI-QTOF; MS2; CE: 15.00;  [M+Na]+
Name: Glucose-6-phosphate
Class: NA
Formula: C6H13O9P
Exact mass: 260.0297
SMILES: C(C(C(C(C(C=O)O)O)O)O)OP(=O)(O)O
InChI: InChI=1S/C6H13O9P/c7-1-3(8)5(10)6(11)4(9)2-15-16(12,13)14/h1,3-6,8-11H,2H2,(H2,12,13,14)
Instrument: Bruker MicrOTOF-Q
Instrument type: LC-ESI-QTOF
Ms type: MS2
Ion mode: POSITIVE
Ionization: ESI
Collision energy: 15.00
Column name: Acquity CSHC18
Retention time: NA
Base peak: 283.0189
Precursor m/z: 283.0189
Precursor type: [M+Na]+
m/z	relative intensity
95.4568	2
120.9652	20
127.0349	2
143.0283	3
149.0152	9
150.0213	2
162.9775	12
167.0311	47
167.128	2
168.0309	6
169.0395	2
185.0446	31
186.048	6
192.9908	19
197.6788	1
203.0523	170
204.0642	5
204.989	19
222.9982	118
223.9988	6
224.9972	1
228.9877	48
246.5174	3
246.9976	311
247.7236	2
247.9992	28
264.7392	2
265.009	252
265.2805	2
266.014	24
268.0825	2
268.2208	1
281.5924	2
282.699	2
282.7882	1
282.8559	1
282.9042	2
283.0196	999
283.336	2
283.4816	5
283.8324	1
284.0255	72
284.2285	1
284.3286	1
285.0295	8
285.1679	2
287.4173	2
289.6581	4
333.0666	3
419.3673	3
452.1536	3
516.777	1
589.9701	1
