Mass spectrum: Cysteamine; LC-ESI-ITFT; MS2; CE: 60;  [M+H]+
Name: Cysteamine
Class: Organosulfur compounds; Thiols; Alkylthiols
Formula: C2H7NS
Exact mass: 77.02992
SMILES: NCCS
InChI: InChI=1S/C2H7NS/c3-1-2-4/h4H,1-3H2
Instrument: Thermo Scientific Q-Exactive Focus
Instrument type: LC-ESI-ITFT
Ms type: MS2
Ion mode: POSITIVE
Ionization: ESI
Collision energy: 60
Column name: Acquity CSHC18
Retention time: 2.014 min
Base peak: 78.03720
Precursor m/z: 78.03720
Precursor type: [M+H]+
m/z	relative intensity
52.1511	402
57.9877	704
58.9955	999
59.967	835
62.6412	396
62.9408	403
72.3868	404
89.1992	428
92.5305	393
94.1292	395
