Mass spectrum: Rutin; ESI-TOF; MS2; CE: 0.6458333;  [M+H]+
Name: Rutin
Class: NA
Formula: C27H30O16
Exact mass: 610.15338
SMILES: CC1OC(OCC2OC(OC3=C(OC4=CC(O)=CC(O)=C4C3=O)C3=CC(O)=C(O)C=C3)C(O)C(O)C2O)C(O)C(O)C1O
InChI: InChI=1S/C27H30O16/c1-8-17(32)20(35)22(37)26(40-8)39-7-15-18(33)21(36)23(38)27(42-15)43-25-19(34)16-13(31)5-10(28)6-14(16)41-24(25)9-2-3-11(29)12(30)4-9/h2-6,8,15,17-18,20-23,26-33,35-38H,7H2,1H3
Instrument: waters xevo g2 TOF
Instrument type: ESI-TOF
Ms type: MS2
Ion mode: POSITIVE
Ionization: ESI
Collision energy: 0.6458333
Column name: Acquity CSHC18
Retention time: 2.228 min
Base peak: 611.16138
Precursor m/z: 611.16138
Precursor type: [M+H]+
m/z	relative intensity
71.0505	12
83.0504	34
85.0295	67
86.0329	3
91.0404	2
93.0347	1
97.0297	13
109.0293	9
112.049	3
121.0086	14
123.0452	1
127.0244	17
129.0556	34
135.0451	1
137.0245	47
138.0274	2
145.0501	19
147.0661	6
149.0399	5
153.0281	30
154.0223	4
161.0605	7
163.0482	9
165.0187	29
166.0242	9
174.085	1
177.0186	1
183.0442	5
187.043	2
189.0552	4
195.0302	4
201.0554	25
202.0592	1
213.0548	1
217.0441	16
218.0547	2
229.05	73
230.0539	10
239.0343	1
245.0389	65
246.0496	9
247.0597	16
257.0558	28
258.0498	4
273.04	33
274.0444	16
275.051	3
285.0401	25
286.0438	4
287.0553	91
288.0449	15
289.0607	2
301.0355	42
302.0392	4
302.9162	999
304.0538	310
305.0561	54
306.0584	6
317.0645	4
323.0265	9
325.0309	3
331.1001	28
332.1039	3
340.9968	6
345.0608	4
355.9629	1
356.9682	1
369.062	1
415.9825	4
449.108	1
465.1033	41
466.1063	10
467.108	1
476.0818	2
479.1176	1
519.0192	3
557.0997	1
611.1607	52
612.1642	16
