Mass spectrum: Tifruticin; LC-ESI-ITFT; MS2; CE: 50eV;  [M+H]+
Name: Tifruticin
Class: Sesquiterpenelactone; Heliangolide
Formula: C20H26O7
Exact mass: 378.1679
SMILES: CC(CC)C(=O)O[C@@H]1C[C@@](C)(O)C=CC(=O)C(CO)=C[C@@H]2OC(=O)C(=C)[C@H]12
InChI: InChI=1S/C20H26O7/c1-5-11(2)18(23)27-16-9-20(4,25)7-6-14(22)13(10-21)8-15-17(16)12(3)19(24)26-15/h6-8,11,15-17,21,25H,3,5,9-10H2,1-2,4H3/t11?,15-,16+,17-,20-/m0/s1
Instrument: Q Exactive Plus, ThermoFisher Scientific
Instrument type: LC-ESI-ITFT
Ms type: MS2
Ion mode: POSITIVE
Ionization: ESI
Collision energy: 50eV
Column name: Acquity CSHC18
Retention time: 5.878 min
Base peak: 379.1743
Precursor m/z: 379.1743
Precursor type: [M+H]+
Precursor intensity: 136755000
m/z	relative intensity
159.0979	371
197.0779	391
201.0737	732
215.0885	744
233.0978	999
