Mass spectrum: Methylimidazoleacetic acid; LC-ESI-ITFT; MS2; CE: 100;  [M+H]+
Name: Methylimidazoleacetic acid
Class: Organoheterocyclic compounds; Azoles; Imidazoles
Formula: C6H8N2O2
Exact mass: 140.05858
SMILES: CN1C=NC(CC(O)=O)=C1
InChI: InChI=1S/C6H8N2O2/c1-8-3-5(7-4-8)2-6(9)10/h3-4H,2H2,1H3,(H,9,10)
Instrument: Thermo Scientific Q-Exactive Focus
Instrument type: LC-ESI-ITFT
Ms type: MS2
Ion mode: POSITIVE
Ionization: ESI
Collision energy: 100
Column name: Acquity CSHC18
Retention time: 2.305 min
Base peak: 141.06586
Precursor m/z: 141.06586
Precursor type: [M+H]+
m/z	relative intensity
52.0187	999
53.0027	599
55.3529	338
65.798	315
96.1113	338
105.3077	319
105.3843	314
119.3301	307
127.5103	314
143.0799	346
