Mass spectrum: farnesyl diphosphate; LC-ESI-QTOF; MS2; CE: -10, -35, -60V;  [M-H]-
Name: farnesyl diphosphate
Class: NA
Formula: C15H28O7P2
Exact mass: 382.1310
SMILES: CC(=CCCC(=CCCC(=CCOP(=O)(O)OP(=O)(O)O)C)C)C
InChI: InChI=1S/C15H28O7P2/c1-13(2)7-5-8-14(3)9-6-10-15(4)11-12-21-24(19,20)22-23(16,17)18/h7,9,11H,5-6,8,10,12H2,1-4H3,(H,19,20)(H2,16,17,18)
Instrument: TripleToF 5600; Sciex
Instrument type: LC-ESI-QTOF
Ms type: MS2
Ion mode: NEGATIVE
Ionization: ESI
Collision energy: -10, -35, -60V
Column name: Acquity CSHC18
Retention time: 19.458 min
Base peak: 381.1125
Precursor m/z: 381.1125
Precursor type: [M-H]-
Precursor intensity: 78503.88
m/z	relative intensity
78.9598	532
142.1266	4
156.1042	5
157.9225	4
158.9282	52
196.0951	7
212.1703	2
214.186	5
222.1105	6
225.1588	3
237.1333	4
280.2002	5
284.2292	11
296.1923	6
313.2475	4
323.2395	9
330.2513	4
363.1203	39
366.2446	6
367.2719	4
368.2519	35
370.2646	8
371.2703	11
378.2166	4
379.2221	12
381.1267	999
