Mass spectrum: Alpha-Terpineol; ESI-TOF; MS2; CE: 6.0000000;  [M+H]+
Name: Alpha-Terpineol
Class: NA
Formula: C10H18O
Exact mass: 154.13577
SMILES: CC1=CCC(CC1)C(C)(C)O
InChI: InChI=1S/C10H18O/c1-8-4-6-9(7-5-8)10(2,3)11/h4,9,11H,5-7H2,1-3H3
Instrument: waters xevo g2 TOF
Instrument type: ESI-TOF
Ms type: MS2
Ion mode: POSITIVE
Ionization: ESI
Collision energy: 6.0000000
Column name: Acquity CSHC18
Retention time: 3.772 min
Base peak: 155.14377
Precursor m/z: 155.14377
Precursor type: [M+H]+
m/z	relative intensity
67.0555	2
81.0709	155
82.0744	10
93.0707	3
95.0863	151
96.0896	12
107.0864	12
108.0922	3
109.1018	65
110.1052	6
121.1022	3
122.1094	3
123.1172	5
133.1014	1
135.1177	60
136.1222	7
137.1825	999
138.1368	219
139.1399	10
149.1334	4
