Mass spectrum: Procyanidin dimer B1; LC-ESI-QFT; MS2; CE: NCE_15_30_58;  [M-H]-
Name: Procyanidin dimer B1
Class: NA
Formula: C30H26O12
Exact mass: 578.1424
SMILES: C1C(C(OC2=C1C(=CC(=C2C3C(C(OC4=CC(=CC(=C34)O)O)C5=CC(=C(C=C5)O)O)O)O)O)C6=CC(=C(C=C6)O)O)O
InChI: InChI=1S/C30H26O12/c31-13-7-20(37)24-23(8-13)41-29(12-2-4-16(33)19(36)6-12)27(40)26(24)25-21(38)10-17(34)14-9-22(39)28(42-30(14)25)11-1-3-15(32)18(35)5-11/h1-8,10,22,26-29,31-40H,9H2
Instrument: Thermo_Qexactive_Plus
Instrument type: LC-ESI-QFT
Ms type: MS2
Ion mode: NEGATIVE
Ionization: ESI
Collision energy: NCE_15_30_58
Column name: Acquity CSHC18
Retention time: 2.922 min
Base peak: 577.1359
Precursor m/z: 577.1359
Precursor type: [M-H]-
Precursor intensity: 295541200
m/z	relative intensity
57.033	13
67.6963	13
70.8209	14
81.0229	14
83.0123	15
97.0285	15
109.0285	15
121.0281	15
122.0365	16
123.0439	16
125.0236	16
126.0271	17
135.0438	17
137.0257	17
139.0391	17
149.024	18
151.039	18
159.0439	18
160.5943	18
161.0394	18
161.3556	19
162.0304	20
163.0238	21
164.0115	21
165.0184	21
167.0341	22
175.0407	23
177.019	24
178.0274	24
179.0339	24
187.0389	24
188.0475	24
201.056	26
202.063	26
203.0549	27
205.0344	28
217.0507	28
217.6221	28
219.0665	28
221.0824	28
227.0726	29
229.0506	29
230.0584	29
231.0296	30
243.0463	34
245.0685	36
246.0867	36
247.0618	37
255.0418	38
256.0381	38
257.0456	39
267.0665	40
269.0459	40
271.0622	40
273.0413	41
281.0442	41
283.0276	44
284.0329	46
285.055	51
286.0505	59
287.0556	62
288.0618	63
289.0754	64
290.0758	66
290.2069	78
297.0542	81
299.056	87
315.0906	87
329.0697	94
339.0891	97
341.0658	99
361.2924	99
381.1011	173
407.0961	187
408.0794	203
410.0972	208
425.0965	217
426.0964	227
451.1101	544
452.1073	625
559.1245	841
577.1355	999
