Mass spectrum: PHOSPHOSERINE; LC-ESI-QFT; MS2; CE: 30eV;  [M+H]+
Name: PHOSPHOSERINE
Class: NA
Formula: C3H8NO6P
Exact mass: 185.00892
SMILES: N[C@@H](COP(O)(O)=O)C(O)=O
InChI: InChI=1S/C3H8NO6P/c4-2(3(5)6)1-10-11(7,8)9/h2H,1,4H2,(H,5,6)(H2,7,8,9)/t2-/m0/s1
Instrument: Q-Exactive Orbitrap, Thermo Scientfic; Ultimate 3000 HPLC, Thermo Scientfic
Instrument type: LC-ESI-QFT
Ms type: MS2
Ion mode: POSITIVE
Ionization: ESI
Collision energy: 30eV
Column name: Acquity CSHC18
Retention time: 0.575 min
Base peak: 186.0162
Precursor m/z: 186.0162
Precursor type: [M+H]+
Precursor intensity: 176
m/z	relative intensity
55.9352	1
70.0295	23
79.1028	1
82.9613	1
84.9604	1
88.04	999
89.0371	1
89.0434	8
95.3506	1
100.7543	1
104.9689	1
107.0859	1
113.9643	8
116.9723	1
117.2327	1
117.9802	7
119.9756	4
131.9745	4
140.0112	1
163.9404	1
169.0173	1
170.1948	1
186.0168	18
186.1857	2
191.5444	1
208.9312	1
