Mass spectrum: Fraxin; LC-ESI-QTOF; MS2; CE: 50eV;  [M-H]-
Name: Fraxin
Class: Coumarin
Formula: C16H18O10
Exact mass: 370.0900
SMILES: COC1=C(C(=C2C(=C1)C=CC(=O)O2)OC3C(C(C(C(O3)CO)O)O)O)O
InChI: InChI=1S/C16H18O10/c1-23-7-4-6-2-3-9(18)25-14(6)15(11(7)20)26-16-13(22)12(21)10(19)8(5-17)24-16/h2-4,8,10,12-13,16-17,19-22H,5H2,1H3
Instrument: TIMS-TOF Pro, Bruker Daltonik; Elute UHPLC System, Bruker Daltonik
Instrument type: LC-ESI-QTOF
Ms type: MS2
Ion mode: NEGATIVE
Ionization: ESI
Collision energy: 50eV
Column name: Acquity CSHC18
Retention time: 4.221 min
Base peak: 369.0807
Precursor m/z: 369.0807
Precursor type: [M-H]-
Precursor intensity: 82641
m/z	relative intensity
17.7991	1
40.2098	1
46.4551	1
49.9365	1
52.3563	1
69.0338	1
70.9226	1
75.0632	1
76.5886	1
79.0182	21
80.0207	2
81.0324	1
85.0277	1
91.0165	5
92.0226	1
93.2169	1
95.1664	1
97.4612	1
99.6699	1
104.1552	1
105.8144	1
107.0115	70
107.4524	1
107.8744	1
108.0202	159
109.0238	8
109.5893	1
115.4477	1
117.4589	1
119.0122	36
120.0206	13
121.0229	1
124.3024	1
131.0759	2
135.0077	143
135.7985	1
136.0099	12
136.7188	1
139.299	1
147.0067	12
148.012	2
149.0228	8
150.0292	12
154.759	1
159.4805	1
163.0022	363
163.1674	1
163.2459	1
163.3104	1
164.0083	31
165.0033	3
174.0166	1
174.7454	1
176.0045	2
178.0246	2
178.3193	1
180.1748	1
181.5107	1
182.5744	1
183.086	2
189.2083	1
190.9974	394
191.1595	1
191.3877	2
191.6234	1
191.9917	210
192.1235	1
192.3087	1
192.5631	1
192.6353	1
192.9867	18
194.0076	3
196.2874	1
205.0288	3
206.0189	97
206.0936	1
206.9758	377
207.1679	1
207.285	1
207.4335	12
207.5198	1
207.6516	1
207.8039	1
208.0312	142
208.6912	1
209.0308	4
315.1039	1
354.0576	41
355.0581	5
356.0571	2
368.7899	1
368.9292	1
369.0807	999
369.3376	1
369.514	2
