Mass spectrum: 16,16-dimethyl Prostaglandin E1; ESI-TOF; MS2; CE: 0.6458333;  [M+H]+
Name: 16,16-dimethyl Prostaglandin E1
Class: NA
Formula: C22H38O5
Exact mass: 382.27192
SMILES: CCCCC(C)(C)C(O)\C=C\[C@H]1C(O)CC(=O)C1CCCCCCC(=O)O
InChI: InChI=1S/C22H38O5/c1-4-5-14-22(2,3)20(25)13-12-17-16(18(23)15-19(17)24)10-8-6-7-9-11-21(26)27/h12-13,16-17,19-20,24-25H,4-11,14-15H2,1-3H3,(H,26,27)/b13-12+/t16?,17-,19?,20?/m1/s1
Instrument: waters xevo g2 TOF
Instrument type: ESI-TOF
Ms type: MS2
Ion mode: POSITIVE
Ionization: ESI
Collision energy: 0.6458333
Column name: Acquity CSHC18
Retention time: 4.138 min
Base peak: 383.27992
Precursor m/z: 383.27992
Precursor type: [M+H]+
m/z	relative intensity
69.0703	148
81.0698	232
83.0862	84
85.1005	18
91.0549	175
93.0711	260
95.0865	453
105.0711	223
107.0695	193
109.1025	201
111.0811	43
117.0704	114
121.1026	177
129.0712	104
131.0857	212
133.1024	267
135.1195	110
137.1333	79
139.1117	99
143.0862	140
145.102	368
147.1193	209
151.149	83
155.0819	16
157.1017	221
158.1073	18
159.1171	305
161.1325	115
163.1487	63
171.118	172
172.1181	19
173.1322	130
175.1131	158
176.1518	17
177.1469	45
185.133	80
189.1457	50
191.1426	30
199.1109	44
202.1667	28
203.1072	92
211.1479	30
213.1624	112
217.1413	50
219.1358	30
231.1756	209
232.1746	29
273.1842	48
277.0756	137
283.2498	27
287.2211	25
291.1018	55
301.2537	141
303.2324	70
304.2999	33
311.236	252
312.2397	58
326.376	21
327.2302	28
329.248	999
330.2515	229
331.196	21
347.2586	357
365.2706	87
366.2721	12
