Mass spectrum: Prunetin; LC-ESI-QTOF; MS2; CE: 15.00;  [M+H]+
Name: Prunetin
Class: NA
Formula: C16H12O5
Exact mass: 284.0685
SMILES: COC1=CC(=C2C(=C1)OC=C(C2=O)C3=CC=C(C=C3)O)O
InChI: InChI=1S/C16H12O5/c1-20-11-6-13(18)15-14(7-11)21-8-12(16(15)19)9-2-4-10(17)5-3-9/h2-8,17-18H,1H3
Instrument: Bruker MicrOTOF-Q
Instrument type: LC-ESI-QTOF
Ms type: MS2
Ion mode: POSITIVE
Ionization: ESI
Collision energy: 15.00
Column name: Acquity CSHC18
Retention time: NA
Base peak: 285.0757
Precursor m/z: 285.0757
Precursor type: [M+H]+
m/z	relative intensity
229.0875	15
257.0828	19
285.0802	201
286.0813	999
