Mass spectrum: H-Ile-Ile-OH; LC-ESI-QTOF; MS2; CE: 15.00;  [M+H]+
Name: H-Ile-Ile-OH
Class: NA
Formula: C12H24N2O3
Exact mass: 244.1787
SMILES: CCC(C)C(C(=O)NC(C(C)CC)C(=O)O)N
InChI: InChI=1S/C12H24N2O3/c1-5-7(3)9(13)11(15)14-10(12(16)17)8(4)6-2/h7-10H,5-6,13H2,1-4H3,(H,14,15)(H,16,17)
Instrument: Bruker MicrOTOF-Q
Instrument type: LC-ESI-QTOF
Ms type: MS2
Ion mode: POSITIVE
Ionization: ESI
Collision energy: 15.00
Column name: Acquity CSHC18
Retention time: NA
Base peak: 245.1860
Precursor m/z: 245.1860
Precursor type: [M+H]+
m/z	relative intensity
163.85	9
164.14	11
181.17	30
182.15	34
199.18	588
200.18	133
201.06	12
201.38	9
210.15	24
227.18	67
229.15	8
245.18	999
245.77	8
245.89	10
246.19	105
