Mass spectrum: GLYCOCHENODEOXYCHOLATE; LC-ESI-QTOF; MS2; CE: 40;  [M+H]+
Name: GLYCOCHENODEOXYCHOLATE
Class: NA
Formula: C26H43NO5
Exact mass: 449.31412
SMILES: [H][C@@]1(CC[C@@]2([H])[C@]3([H])[C@H](O)C[C@]4([H])C[C@H](O)CC[C@]4(C)[C@@]3([H])CC[C@]12C)[C@H](C)CCC(=O)NCC(O)=O
InChI: InChI=1S/C26H43NO5/c1-15(4-7-22(30)27-14-23(31)32)18-5-6-19-24-20(9-11-26(18,19)3)25(2)10-8-17(28)12-16(25)13-21(24)29/h15-21,24,28-29H,4-14H2,1-3H3,(H,27,30)(H,31,32)/t15-,16+,17-,18-,19+,20+,21-,24+,25+,26-/m1/s1
Instrument: Agilent 6530Â Q-TOF LC/MS
Instrument type: LC-ESI-QTOF
Ms type: MS2
Ion mode: POSITIVE
Ionization: ESI
Collision energy: 40
Column name: NA
Retention time: 0.200 min
Base peak: 450.31933
Precursor m/z: 450.31933
Precursor type: [M+H]+
Precursor intensity: 18.5
m/z	relative intensity
55.0147	287
67.0554	293
76.0485	308
77.0388	323
79.0564	342
81.0769	342
95.0882	354
105.0727	355
109.1054	377
119.0938	383
121.1005	390
131.0931	407
133.1088	421
135.1131	431
145.1041	436
163.1327	438
177.1235	465
189.1197	466
200.1566	647
201.1633	666
211.1525	707
339.2468	999
