Mass spectrum: Cyanidin-3-glucoside; LC-ESI-QTOF; MS2; CE: 50eV;  [M]+
Name: Cyanidin-3-glucoside
Class: Anthocyanin
Formula: [C21H21O11]+
Exact mass: 449.1078
SMILES: C1=CC(=C(C=C1C2=[O+]C3=CC(=CC(=C3C=C2OC4C(C(C(C(O4)CO)O)O)O)O)O)O)O
InChI: InChI=1S/C21H20O11/c22-7-16-17(27)18(28)19(29)21(32-16)31-15-6-10-12(25)4-9(23)5-14(10)30-20(15)8-1-2-11(24)13(26)3-8/h1-6,16-19,21-22,27-29H,7H2,(H3-,23,24,25,26)/p+1
Instrument: TIMS-TOF Pro, Bruker Daltonik; Elute UHPLC System, Bruker Daltonik
Instrument type: LC-ESI-QTOF
Ms type: MS2
Ion mode: POSITIVE
Ionization: ESI
Collision energy: 50eV
Column name: Acquity CSHC18
Retention time: 3.489 min
Base peak: 449.1056
Precursor m/z: 449.1056
Precursor type: [M]+
Precursor intensity: 565353.7
m/z	relative intensity
53.0414	7
109.0281	9
135.0526	5
159.8713	16
175.0341	5
216.0423	5
239.3411	6
245.1118	8
272.5576	5
285.8224	8
286.7808	17
286.9421	7
286.9851	17
287.0066	68
287.0254	90
287.3265	7
287.3938	4
287.5337	56
288.0343	40
288.0558	999
288.2821	8
288.4033	5
289.0557	55
290.6115	5
447.8322	3
449.1056	149
