Mass spectrum: 5-Methoxytryptamine; LC-ESI-ITFT; MS2; CE: 20;  [M+H]+
Name: 5-Methoxytryptamine
Class: Organoheterocyclic compounds; Indoles and derivatives; Tryptamines and derivatives
Formula: C11H14N2O
Exact mass: 190.11061
SMILES: COC1=CC2=C(NC=C2CCN)C=C1
InChI: InChI=1S/C11H14N2O/c1-14-9-2-3-11-10(6-9)8(4-5-12)7-13-11/h2-3,6-7,13H,4-5,12H2,1H3
Instrument: Thermo Scientific Q-Exactive Focus
Instrument type: LC-ESI-ITFT
Ms type: MS2
Ion mode: POSITIVE
Ionization: ESI
Collision energy: 20
Column name: Acquity CSHC18
Retention time: 0.630 min
Base peak: 191.11789
Precursor m/z: 191.11789
Precursor type: [M+H]+
m/z	relative intensity
115.0545	19
117.0701	22
130.0653	31
131.0731	109
142.0652	22
143.073	159
144.0809	44
147.0806	16
159.068	500
174.0915	999
