Mass spectrum: 1-O-1'-(Z)-octadecenyl-2-hydroxy-sn-glycero-3-phosphocholine; ESI-TOF; MS2; CE: 0.6458333;  [M+H]+
Name: 1-O-1'-(Z)-octadecenyl-2-hydroxy-sn-glycero-3-phosphocholine
Class: NA
Formula: C26H54NO6P
Exact mass: 507.36888
SMILES: [H]OC([H])(C([H])([H])OC([H])=C([H])C([H])([H])C([H])([H])C([H])([H])C([H])([H])C([H])([H])C([H])([H])C([H])([H])C([H])([H])C([H])([H])C([H])([H])C([H])([H])C([H])([H])C([H])([H])C([H])([H])C([H])([H])C([H])([H])[H])C([H])([H])OP(=O)([O-])OC([H])([H])C([H])([H])[N+](C([H])([H])[H])(C([H])([H])[H])C([H])([H])[H]
InChI: InChI=1S/C26H54NO6P/c1-5-6-7-8-9-10-11-12-13-14-15-16-17-18-19-20-22-31-24-26(28)25-33-34(29,30)32-23-21-27(2,3)4/h20,22,26,28H,5-19,21,23-25H2,1-4H3
Instrument: waters xevo g2 TOF
Instrument type: ESI-TOF
Ms type: MS2
Ion mode: POSITIVE
Ionization: ESI
Collision energy: 0.6458333
Column name: Acquity CSHC18
Retention time: 7.763 min
Base peak: 508.37688
Precursor m/z: 508.37688
Precursor type: [M+H]+
m/z	relative intensity
86.0971	95
102.0921	1
104.1076	548
105.1107	35
111.5143	5
120.5198	9
125.0001	42
129.5249	16
133.5277	1
138.5303	5
139.5272	1
148.5324	2
162.9471	15
163.9545	1
166.0631	28
181.0266	94
182.0297	4
184.0739	115
185.0768	7
201.5237	1
218.9733	1
222.0206	2
237.9936	3
239.0463	1
240.1001	111
241.1036	10
245.6524	1
258.109	1
267.0616	1
273.6661	9
274.1676	1
335.6611	1
363.2573	2
363.6734	2
365.1973	1
471.2847	76
472.2872	6
473.2917	1
487.25	4
490.3657	34
491.3698	9
494.773	3
497.8128	6
498.314	2
508.377	999
509.3807	313
