Mass spectrum: CYSTATHIONINE; LC-ESI-QTOF; MS2; CE: 20;  [M-H]-
Name: CYSTATHIONINE
Class: NA
Formula: C7H14N2O4S
Exact mass: 222.06743
SMILES: N[C@@H](CCSC[C@H](N)C(O)=O)C(O)=O
InChI: InChI=1S/C7H14N2O4S/c8-4(6(10)11)1-2-14-3-5(9)7(12)13/h4-5H,1-3,8-9H2,(H,10,11)(H,12,13)/t4-,5-/m0/s1
Instrument: Agilent 6530Â Q-TOF LC/MS
Instrument type: LC-ESI-QTOF
Ms type: MS2
Ion mode: NEGATIVE
Ionization: ESI
Collision energy: 20
Column name: NA
Retention time: 0.200 min
Base peak: 221.06087
Precursor m/z: 221.06087
Precursor type: [M-H]-
Precursor intensity: 114
m/z	relative intensity
86.0188	210
100.0324	212
120.0274	222
134.0445	899
160.0436	999
