Mass spectrum: BETAINE; LC-ESI-QTOF; MS2; CE: 40;  [M+H]+
Name: BETAINE
Class: NA
Formula: C5H11NO2
Exact mass: 117.0790
SMILES: C[N+](C)(C)CC([O-])=O
InChI: InChI=1S/C5H11NO2/c1-6(2,3)4-5(7)8/h4H2,1-3H3
Instrument: Agilent 6530Â Q-TOF LC/MS
Instrument type: LC-ESI-QTOF
Ms type: MS2
Ion mode: POSITIVE
Ionization: ESI
Collision energy: 40
Column name: NA
Retention time: 0.200 min
Base peak: 118.08710
Precursor m/z: 118.08710
Precursor type: [M+H]+
Precursor intensity: 183.5
m/z	relative intensity
42.0341	13
43.0421	18
56.0495	63
58.0657	114
59.072	999
