Mass spectrum: Guanidoacetic acid; ESI-TOF; MS2; CE: 0.6458333;  [M+H]+
Name: Guanidoacetic acid
Class: NA
Formula: C3H7N3O2
Exact mass: 117.05383
SMILES: NC(=N)NCC(O)=O
InChI: InChI=1S/C3H7N3O2/c4-3(5)6-1-2(7)8/h1H2,(H,7,8)(H4,4,5,6)
Instrument: waters xevo g2 TOF
Instrument type: ESI-TOF
Ms type: MS2
Ion mode: POSITIVE
Ionization: ESI
Collision energy: 0.6458333
Column name: Acquity CSHC18
Retention time: 0.501 min
Base peak: 118.06183
Precursor m/z: 118.06183
Precursor type: [M+H]+
m/z	relative intensity
72.0569	375
73.0407	80
74.9537	144
76.0405	258
94.9677	5
96.9617	5
98.9628	5
100.0516	5
101.0357	337
102.0928	65
115.9654	5
117.9799	5
118.062	999
119.0642	5
120.0662	5
131.9508	44
132.0777	5
140.044	165
140.996	5
142.9913	5
145.0174	207
147.953	5
156.8682	47
159.9702	5
170.9938	5
186.9571	5
198.0322	109
199.9753	5
201.8693	43
202.0161	5
230.8663	5
235.1138	117
244.0362	85
258.1713	20
259.0731	35
276.8974	5
288.0298	5
363.7882	5
374.1487	5
405.0791	98
406.0867	5
522.1366	5
