Mass spectrum: D-PINITOL; LC-ESI-QTOF; MS2; CE: 20;  [M-H]-
Name: D-PINITOL
Class: NA
Formula: C7H14O6
Exact mass: 194.07904
SMILES: CO[C@@H]1[C@@H](O)[C@@H](O)[C@H](O)[C@H](O)[C@H]1O
InChI: InChI=1S/C7H14O6/c1-13-7-5(11)3(9)2(8)4(10)6(7)12/h2-12H,1H3/t2-,3-,4-,5-,6+,7+/m0/s1
Instrument: Agilent 6530Â Q-TOF LC/MS
Instrument type: LC-ESI-QTOF
Ms type: MS2
Ion mode: NEGATIVE
Ionization: ESI
Collision energy: 20
Column name: NA
Retention time: 0.200 min
Base peak: 193.07303
Precursor m/z: 193.07303
Precursor type: [M-H]-
Precursor intensity: 171
m/z	relative intensity
41.022	122
43.0368	125
45.0153	140
51.0268	145
55.0394	151
57.0358	158
58.0118	161
59.0318	163
67.0198	166
69.0283	180
71.0285	188
73.0395	194
79.0277	198
83.0174	222
85.0465	227
86.009	228
87.0198	229
89.0211	260
95.0135	264
97.0364	295
99.0293	340
100.0161	396
101.0366	431
111.0098	451
112.0119	508
113.0217	545
123.0088	655
124.0157	676
125.03	679
140.0126	703
141.0153	841
142.0215	890
161.0471	999
