Mass spectrum: N-Arachidonoyl dopamine; LC-ESI-ITFT; MS2; CE: 30;  [M-H]-
Name: N-Arachidonoyl dopamine
Class: NA
Formula: C28H41NO3
Exact mass: 439.30864
SMILES: CCCCC/C=C\C/C=C\C/C=C\C/C=C\CCCC(=O)NCCC1=CC(=C(C=C1)O)O
InChI: InChI=1S/C28H41NO3/c1-2-3-4-5-6-7-8-9-10-11-12-13-14-15-16-17-18-19-28(32)29-23-22-25-20-21-26(30)27(31)24-25/h6-7,9-10,12-13,15-16,20-21,24,30-31H,2-5,8,11,14,17-19,22-23H2,1H3,(H,29,32)/b7-6-,10-9-,13-12-,16-15-
Instrument: Thermo Scientific Q-Exactive Focus
Instrument type: LC-ESI-ITFT
Ms type: MS2
Ion mode: NEGATIVE
Ionization: ESI
Collision energy: 30
Column name: Acquity CSHC18
Retention time: 0.925 min
Base peak: 438.30136
Precursor m/z: 438.30136
Precursor type: [M-H]-
m/z	relative intensity
58.0286	59
72.0442	37
122.0361	123
123.044	999
134.0362	290
135.044	123
152.0706	73
154.0261	46
178.05	102
438.3007	978
