Mass spectrum: Lactulose; ESI-TOF; MS2; CE: 0.6458333;  [M+H]+
Name: Lactulose
Class: NA
Formula: C12H22O11
Exact mass: 342.11621
SMILES: OCC1OC(OC2C(CO)OC(O)(CO)C2O)C(O)C(O)C1O
InChI: InChI=1S/C12H22O11/c13-1-4-6(16)7(17)8(18)11(21-4)22-9-5(2-14)23-12(20,3-15)10(9)19/h4-11,13-20H,1-3H2
Instrument: waters xevo g2 TOF
Instrument type: ESI-TOF
Ms type: MS2
Ion mode: POSITIVE
Ionization: ESI
Collision energy: 0.6458333
Column name: Acquity CSHC18
Retention time: 0.562 min
Base peak: 343.12421
Precursor m/z: 343.12421
Precursor type: [M+H]+
m/z	relative intensity
85.0291	390
97.0291	180
109.0288	49
127.0395	467
128.0426	4
131.9761	4
140.9959	4
154.991	4
163.0613	143
172.9784	4
183.9888	4
197.9634	50
198.9691	71
202.5481	4
236.9394	4
236.9406	4
258.1742	4
289.0925	4
306.0041	120
325.1123	75
347.0954	427
360.1509	25
361.1553	4
365.1059	999
366.1094	234
381.08	67
396.0355	80
397.0425	36
456.0561	126
487.1643	4
649.2182	4
702.2679	4
707.22	4
738.1496	63
739.1603	4
