Mass spectrum: artemisinin; LC-ESI-QTOF; MS2; CE: 15.00;  [M-2H2O+H]+
Name: artemisinin
Class: NA
Formula: C15H22O5
Exact mass: 282.1467
SMILES: CC1CCC2C(C(=O)OC3C24C1CCC(O3)(OO4)C)C
InChI: InChI=1S/C15H22O5/c1-8-4-5-11-9(2)12(16)17-13-15(11)10(8)6-7-14(3,18-13)19-20-15/h8-11,13H,4-7H2,1-3H3
Instrument: Bruker MicrOTOF-Q
Instrument type: LC-ESI-QTOF
Ms type: MS2
Ion mode: POSITIVE
Ionization: ESI
Collision energy: 15.00
Column name: Acquity CSHC18
Retention time: NA
Base peak: 247.1329
Precursor m/z: 247.1329
Precursor type: [M-2H2O+H]+
m/z	relative intensity
115.067	77
121.0622	65
123.0763	52
131.0866	110
133.1008	72
134.1045	43
135.0817	43
137.0958	29
138.1007	28
142.0764	33
143.0828	41
144.0904	40
145.1032	75
148.084	64
149.1001	134
158.0731	30
159.1148	200
160.0805	59
161.0957	186
162.0992	32
163.1049	36
166.0989	26
167.081	33
168.0989	28
168.1443	47
171.0749	32
172.0838	45
173.0988	459
174.1284	155
175.1095	126
176.1193	95
177.1237	192
185.0919	41
186.1022	68
187.1111	196
188.1031	59
189.0892	352
190.092	119
191.1033	178
192.1437	41
193.0889	56
196.0828	57
201.1251	529
202.1277	71
203.1431	336
204.1297	88
205.119	325
209.1851	36
211.1071	119
219.1375	108
220.1391	173
229.1203	549
230.1265	127
246.9604	32
247.1328	999
248.1344	332
376.1144	29
