Mass spectrum: FLAVIN ADENINE DINUCLEOTIDE; LC-ESI-QTOF; MS2; CE: 20-40eV;  [M+H]+
Name: FLAVIN ADENINE DINUCLEOTIDE
Class: Flavin
Formula: C27H33N9O15P2
Exact mass: 785.1571
SMILES: CC1=CC2=C(C=C1C)N(CC(C(C(COP(O)(=O)OP(O)(=O)OCC3(C(C(C(N4C=NC5=C(N)N=CN=C54)(O3)[H])(O)[H])(O)[H])[H])(O)[H])(O)[H])(O)[H])C=6C(C(=NC(N6)=O)O)=N2
InChI: InChI=1S/C27H33N9O15P2/c1-10-3-12-13(4-11(10)2)35(24-18(32-12)25(42)34-27(43)33-24)5-14(37)19(39)15(38)6-48-52(44,45)51-53(46,47)49-7-16-20(40)21(41)26(50-16)36-9-31-17-22(28)29-8-30-23(17)36/h3-4,8-9,14-16,19-21,26,37-41H,5-7H2,1-2H3,(H,44,45)(H,46,47)(H2,28,29,30)(H,34,42,43)
Instrument: Impact II, Bruker; Dionex 3000, Thermo Scientific
Instrument type: LC-ESI-QTOF
Ms type: MS2
Ion mode: POSITIVE
Ionization: ESI
Collision energy: 20-40eV
Column name: Acquity CSHC18
Retention time: 3.354 min
Base peak: 786.1653
Precursor m/z: 786.1653
Precursor type: [M+H]+
Precursor intensity: 17422.25
m/z	relative intensity
243.076	575
256.0811	592
433.0078	999
