Mass spectrum: Mannose 6-phosphate; LC-ESI-QTOF; MS2; CE: -10, -35, -60V;  [M-H]-
Name: Mannose 6-phosphate
Class: NA
Formula: C6H13O9P
Exact mass: 260.0297
SMILES: C(C1C(C(C(C(O1)O)O)O)O)OP(=O)(O)O
InChI: InChI=1S/C6H13O9P/c7-3-2(1-14-16(11,12)13)15-6(10)5(9)4(3)8/h2-10H,1H2,(H2,11,12,13)
Instrument: TripleToF 5600; Sciex
Instrument type: LC-ESI-QTOF
Ms type: MS2
Ion mode: NEGATIVE
Ionization: ESI
Collision energy: -10, -35, -60V
Column name: Acquity CSHC18
Retention time: 5.307 min
Base peak: 259.0267
Precursor m/z: 259.0267
Precursor type: [M-H]-
Precursor intensity: 15514.13
m/z	relative intensity
78.9594	594
96.9701	388
199.0056	87
246.1747	19
257.0064	215
259.0221	999
