Mass spectrum: 1-(1Z-octadecenyl)-2-oleoyl-sn-glycero-3-phosphocholine; ESI-TOF; MS2; CE: 0.6458333;  [M+H]+
Name: 1-(1Z-octadecenyl)-2-oleoyl-sn-glycero-3-phosphocholine
Class: NA
Formula: C44H86NO7P
Exact mass: 771.61419
SMILES: [H]C(OC([H])([H])C([H])(OC(=O)C([H])([H])C([H])([H])C([H])([H])C([H])([H])C([H])([H])C([H])([H])C([H])([H])C([H])=C([H])C([H])([H])C([H])([H])C([H])([H])C([H])([H])C([H])([H])C([H])([H])C([H])([H])C([H])([H])[H])C([H])([H])OP(=O)([O-])OC([H])([H])C([H])([H])[N+](C([H])([H])[H])(C([H])([H])[H])C([H])([H])[H])=C([H])C([H])([H])C([H])([H])C([H])([H])C([H])([H])C([H])([H])C([H])([H])C([H])([H])C([H])([H])C([H])([H])C([H])([H])C([H])([H])C([H])([H])C([H])([H])C([H])([H])C([H])([H])C([H])([H])[H]
InChI: InChI=1S/C44H86NO7P/c1-6-8-10-12-14-16-18-20-22-24-26-28-30-32-34-36-39-49-41-43(42-51-53(47,48)50-40-38-45(3,4)5)52-44(46)37-35-33-31-29-27-25-23-21-19-17-15-13-11-9-7-2/h21,23,36,39,43H,6-20,22,24-35,37-38,40-42H2,1-5H3
Instrument: waters xevo g2 TOF
Instrument type: ESI-TOF
Ms type: MS2
Ion mode: POSITIVE
Ionization: ESI
Collision energy: 0.6458333
Column name: Acquity CSHC18
Retention time: 11.882 min
Base peak: 772.62219
Precursor m/z: 772.62219
Precursor type: [M+H]+
m/z	relative intensity
86.097	19
146.9814	3
162.9467	2
184.0742	721
185.077	93
186.0781	14
271.6485	2
273.6669	2
307.3005	8
321.2108	34
322.214	15
325.0029	1
337.1844	4
355.07	2
405.7885	6
430.0921	2
476.3499	2
490.3663	133
491.37	30
492.3708	3
504.3456	24
505.3481	4
508.3785	7
522.3581	3
589.5574	10
590.5589	2
690.1592	6
691.1565	4
692.1577	1
735.5298	34
736.534	18
737.5359	4
758.6066	3
759.6109	2
762.0611	2
762.5588	2
772.6221	999
773.6262	510
