Mass spectrum: 1-(1Z-octadecenyl)-2-oleoyl-sn-glycero-3-phosphocholine; ESI-TOF; MS2; CE: 6.0000000;  [M+H]+
Name: 1-(1Z-octadecenyl)-2-oleoyl-sn-glycero-3-phosphocholine
Class: NA
Formula: C44H86NO7P
Exact mass: 771.61419
SMILES: [H]C(OC([H])([H])C([H])(OC(=O)C([H])([H])C([H])([H])C([H])([H])C([H])([H])C([H])([H])C([H])([H])C([H])([H])C([H])=C([H])C([H])([H])C([H])([H])C([H])([H])C([H])([H])C([H])([H])C([H])([H])C([H])([H])C([H])([H])[H])C([H])([H])OP(=O)([O-])OC([H])([H])C([H])([H])[N+](C([H])([H])[H])(C([H])([H])[H])C([H])([H])[H])=C([H])C([H])([H])C([H])([H])C([H])([H])C([H])([H])C([H])([H])C([H])([H])C([H])([H])C([H])([H])C([H])([H])C([H])([H])C([H])([H])C([H])([H])C([H])([H])C([H])([H])C([H])([H])C([H])([H])[H]
InChI: InChI=1S/C44H86NO7P/c1-6-8-10-12-14-16-18-20-22-24-26-28-30-32-34-36-39-49-41-43(42-51-53(47,48)50-40-38-45(3,4)5)52-44(46)37-35-33-31-29-27-25-23-21-19-17-15-13-11-9-7-2/h21,23,36,39,43H,6-20,22,24-35,37-38,40-42H2,1-5H3
Instrument: waters xevo g2 TOF
Instrument type: ESI-TOF
Ms type: MS2
Ion mode: POSITIVE
Ionization: ESI
Collision energy: 6.0000000
Column name: Acquity CSHC18
Retention time: 11.882 min
Base peak: 772.62219
Precursor m/z: 772.62219
Precursor type: [M+H]+
m/z	relative intensity
127.9794	8
184.074	7
321.2108	31
322.214	5
337.1844	13
338.1863	2
353.0645	3
355.07	2
397.8003	4
398.2955	2
398.7795	9
399.28	3
405.7885	168
406.2879	70
406.7916	23
407.2922	6
407.7857	3
408.287	2
413.7734	9
414.2805	5
421.8021	5
430.0921	2
470.77	9
476.3499	2
478.753	5
490.3663	36
491.37	15
492.3708	2
556.0503	2
686.2004	5
687.2013	2
690.1592	6
691.1565	5
692.1577	2
713.2317	5
714.2329	3
758.6066	10
759.6109	3
772.62	653
773.6262	999
