Mass spectrum: L-Glutamine; LC-ESI-ITFT; MS2; CE: 20;  [M+H]+
Name: L-Glutamine
Class: Organic acids and derivatives; Carboxylic acids and derivatives; Amino acids, peptides, and analogues
Formula: C5H10N2O3
Exact mass: 146.06914
SMILES: N[C@@H](CCC(N)=O)C(O)=O
InChI: InChI=1S/C5H10N2O3/c6-3(5(9)10)1-2-4(7)8/h3H,1-2,6H2,(H2,7,8)(H,9,10)/t3-/m0/s1
Instrument: Thermo Scientific Q-Exactive Focus
Instrument type: LC-ESI-ITFT
Ms type: MS2
Ion mode: POSITIVE
Ionization: ESI
Collision energy: 20
Column name: Acquity CSHC18
Retention time: 0.631 min
Base peak: 147.07642
Precursor m/z: 147.07642
Precursor type: [M+H]+
m/z	relative intensity
56.0501	70
64.9278	7
84.0449	999
85.0288	14
87.3685	2
101.0713	2
102.0553	16
123.9646	2
130.05	41
160.0037	1
