Mass spectrum: kaempferitrin; LC-ESI-QTOF; MS2; CE: 31.58;  [M+H]+
Name: kaempferitrin
Class: NA
Formula: C27H30O14
Exact mass: 578.1636
SMILES: CC1C(C(C(C(O1)OC2=CC(=C3C(=C2)OC(=C(C3=O)OC4C(C(C(C(O4)C)O)O)O)C5=CC=C(C=C5)O)O)O)O)O
InChI: InChI=1S/C27H30O14/c1-9-17(30)20(33)22(35)26(37-9)39-13-7-14(29)16-15(8-13)40-24(11-3-5-12(28)6-4-11)25(19(16)32)41-27-23(36)21(34)18(31)10(2)38-27/h3-10,17-18,20-23,26-31,33-36H,1-2H3
Instrument: Bruker MicrOTOF-Q
Instrument type: LC-ESI-QTOF
Ms type: MS2
Ion mode: POSITIVE
Ionization: ESI
Collision energy: 31.58
Column name: Acquity CSHC18
Retention time: NA
Base peak: 579.1708
Precursor m/z: 579.1708
Precursor type: [M+H]+
m/z	relative intensity
129.0533	1
175.0379	2
207.0656	6
286.8888	3
287.0558	999
287.4712	1
287.8282	1
288.0587	163
289.0602	20
290.062	1
329.062	1
