Mass spectrum: vitexin; LC-ESI-ITFT; MS2; CE: 0.3;  [M+H]+
Name: vitexin
Class: flavones
Formula: C21H20O10
Exact mass: 432.1056
SMILES: C1=CC(=CC=C1C2=CC(=O)C3=C(O2)C(=C(C=C3O)O)C4C(C(C(C(O4)CO)O)O)O)O
InChI: InChI=1S/C21H20O10/c22-7-14-17(27)18(28)19(29)21(31-14)16-11(25)5-10(24)15-12(26)6-13(30-20(15)16)8-1-3-9(23)4-2-8/h1-6,14,17-19,21-25,27-29H,7H2
Instrument: LTQ-Orbitrap XL hybrid mass spectrometer (Thermo Scientific)
Instrument type: LC-ESI-ITFT
Ms type: MS2
Ion mode: POSITIVE
Ionization: ESI
Collision energy: 0.3
Column name: Acquity CSHC18
Retention time: 7.037 min
Base peak: 433.1139
Precursor m/z: 433.1139
Precursor type: [M+H]+
Precursor intensity: 32464560
m/z	relative intensity
106.464	2
108.1752	1
108.2006	2
110.6893	2
112.2314	2
119.3058	2
134.8553	2
148.6029	2
159.3892	2
161.2286	2
161.2318	6
196.2179	6
271.061	3
283.0616	26
286.6272	3
286.6338	7
295.0616	36
307.0615	3
311.0567	2
313.0723	194
314.0754	4
337.0723	91
338.0753	2
343.0829	15
349.0725	2
351.0879	15
356.9583	1
367.0651	3
367.083	322
368.0863	7
379.0829	96
397.0936	385
398.0967	10
412.6649	2
415.0443	3
415.0501	6
415.0638	4
415.0692	8
415.0763	6
415.0823	7
415.0887	7
415.1042	999
415.12	3
415.1278	4
415.1331	8
415.1404	4
415.1458	5
415.1598	3
415.1649	5
416.1075	24
417.0755	2
417.5694	3
418.8098	4
