Mass spectrum: Corytuberine HCl; ESI-QTOF; MS2; CE: 1, 35, 60;  [M+H]+
Name: Corytuberine HCl
Class: Benzylisoquinoline (subclass: Aporphine) alkaloid
Formula: C19H21NO4
Exact mass: 327.1471
SMILES: CN1CCC2=CC(=C(C3=C2C1CC4=C3C(=C(C=C4)OC)O)O)OC
InChI: InChI=1S/C19H21NO4/c1-20-7-6-11-9-14(24-3)19(22)17-15(11)12(20)8-10-4-5-13(23-2)18(21)16(10)17/h4-5,9,12,21-22H,6-8H2,1-3H3
Instrument: AB Sciex TripleToF 5500
Instrument type: ESI-QTOF
Ms type: MS2
Ion mode: POSITIVE
Ionization: ESI
Collision energy: 1, 35, 60
Column name: Acquity CSHC18
Retention time: 4.192 min
Base peak: 328.1560
Precursor m/z: 328.1560
Precursor type: [M+H]+
Precursor intensity: 66361.63
m/z	relative intensity
151.0574	72
153.0646	99
163.0634	39
164.0709	141
165.0688	883
166.077	227
176.0601	164
177.0599	135
178.0777	262
179.0757	145
182.0788	23
189.0674	335
190.0743	179
191.0819	210
193.064	181
194.0696	172
205.0596	121
207.072	139
219.0749	105
221.0498	164
221.0645	163
222.0606	236
223.0737	48
235.0683	64
237.0769	166
237.0878	170
239.0723	65
253.0761	58
263.0729	29
265.0895	742
266.0973	122
282.0851	288
285.1044	22
297.1115	999
298.1076	236
299.1396	23
327.115	38
328.1499	480
329.1532	142
