Mass spectrum: RIBOFLAVIN; LC-ESI-QFT; MS2; CE: 30eV;  [M-H]-
Name: RIBOFLAVIN
Class: NA
Formula: C17H20N4O6
Exact mass: 376.13828
SMILES: CC1=C(C)C=C2N(C[C@H](O)[C@H](O)[C@H](O)CO)C3=NC(=O)NC(=O)C3=NC2=C1
InChI: InChI=1S/C17H20N4O6/c1-7-3-9-10(4-8(7)2)21(5-11(23)14(25)12(24)6-22)15-13(18-9)16(26)20-17(27)19-15/h3-4,11-12,14,22-25H,5-6H2,1-2H3,(H,20,26,27)/t11-,12+,14-/m0/s1
Instrument: Q-Exactive Orbitrap, Thermo Scientfic; Ultimate 3000 HPLC, Thermo Scientfic
Instrument type: LC-ESI-QFT
Ms type: MS2
Ion mode: NEGATIVE
Ionization: ESI
Collision energy: 30eV
Column name: Acquity CSHC18
Retention time: 6.510 min
Base peak: 375.1310
Precursor m/z: 375.1310
Precursor type: [M-H]-
Precursor intensity: 158
m/z	relative intensity
51.3919	9
53.033	11
55.5353	9
55.8767	9
56.9411	8
57.4024	8
60.4336	10
60.4351	9
64.0986	9
78.0272	10
79.9818	10
81.2803	9
91.9821	10
115.5734	12
123.6009	11
130.645	12
137.9627	11
159.0446	12
174.9658	10
175.1075	12
176.4451	11
212.0824	130
216.0776	14
217.8603	12
240.0656	14
241.0728	77
255.0885	999
256.0926	85
274.679	11
333.3925	14
363.3977	14
369.0429	12
384.1779	13
