Mass spectrum: Isorhapontigenin; LC-ESI-QTOF; MS2; CE: 15.00;  [M+H]+
Name: Isorhapontigenin
Class: NA
Formula: C15H14O4
Exact mass: 258.0892
SMILES: COC1=C(C=CC(=C1)C=CC2=CC(=CC(=C2)O)O)O
InChI: InChI=1S/C15H14O4/c1-19-15-8-10(4-5-14(15)18)2-3-11-6-12(16)9-13(17)7-11/h2-9,16-18H,1H3
Instrument: Bruker MicrOTOF-Q
Instrument type: LC-ESI-QTOF
Ms type: MS2
Ion mode: POSITIVE
Ionization: ESI
Collision energy: 15.00
Column name: Acquity CSHC18
Retention time: NA
Base peak: 259.0965
Precursor m/z: 259.0965
Precursor type: [M+H]+
m/z	relative intensity
107.05	143
135.04	233
149.06	105
181.06	481
197.06	144
199.07	999
200.08	168
209.06	198
213.09	141
226.06	105
227.07	419
228.07	108
259.09	473
