Mass spectrum: CITRULLINE; LC-ESI-QFT; MS2; CE: 30eV;  [M+H]+
Name: CITRULLINE
Class: NA
Formula: C6H13N3O3
Exact mass: 175.09569
SMILES: N[C@@H](CCCNC(N)=O)C(O)=O
InChI: InChI=1S/C6H13N3O3/c7-4(5(10)11)2-1-3-9-6(8)12/h4H,1-3,7H2,(H,10,11)(H3,8,9,12)/t4-/m0/s1
Instrument: Q-Exactive Orbitrap, Thermo Scientfic; Ultimate 3000 HPLC, Thermo Scientfic
Instrument type: LC-ESI-QFT
Ms type: MS2
Ion mode: POSITIVE
Ionization: ESI
Collision energy: 30eV
Column name: Acquity CSHC18
Retention time: 0.575 min
Base peak: 176.1030
Precursor m/z: 176.1030
Precursor type: [M+H]+
Precursor intensity: 149
m/z	relative intensity
50.6683	1
53.7462	1
60.4801	1
60.7394	1
65.7355	2
66.7919	1
70.0659	700
71.0692	14
74.0608	8
81.608	2
83.9181	2
86.0607	11
87.0922	12
89.7426	2
96.045	3
97.0767	22
98.0607	3
113.0714	999
114.0555	161
114.0748	17
114.972	13
115.0587	3
115.0871	328
116.0711	184
116.0902	4
117.0881	2
120.0446	1
123.5306	1
125.3648	2
130.0979	27
131.0816	9
131.9874	2
133.0975	23
138.4904	2
139.8788	2
141.0661	47
141.3799	1
142.0502	22
158.0927	5
158.1179	87
160.0739	5
160.08	57
176.1033	113
176.1283	8
185.2752	2
