Mass spectrum: Carbamoylaspartic acid; LC-ESI-QTOF; MS2; CE: 30;  [M-H]-
Name: Carbamoylaspartic acid
Class: NA
Formula: C5H8N2O5
Exact mass: 176.0433
SMILES: C(C(C(=O)O)NC(=O)N)C(=O)O
InChI: InChI=1S/C5H8N2O5/c6-5(12)7-2(4(10)11)1-3(8)9/h2H,1H2,(H,8,9)(H,10,11)(H3,6,7,12)
Instrument: impact II
Instrument type: LC-ESI-QTOF
Ms type: MS2
Ion mode: NEGATIVE
Ionization: ESI
Collision energy: 30
Column name: Acquity CSHC18
Retention time: 1.870 min
Base peak: 175.0357
Precursor m/z: 175.0357
Precursor type: [M-H]-
m/z	relative intensity
88.0404	999
115.0034	155
132.0301	145
