Mass spectrum: MELATONIN; LC-ESI-QFT; MS2; CE: 30eV;  [M-H]-
Name: MELATONIN
Class: NA
Formula: C13H16N2O2
Exact mass: 232.12118
SMILES: COC1=CC2=C(NC=C2CCNC(C)=O)C=C1
InChI: InChI=1S/C13H16N2O2/c1-9(16)14-6-5-10-8-15-13-4-3-11(17-2)7-12(10)13/h3-4,7-8,15H,5-6H2,1-2H3,(H,14,16)
Instrument: Q-Exactive Orbitrap, Thermo Scientfic; Ultimate 3000 HPLC, Thermo Scientfic
Instrument type: LC-ESI-QFT
Ms type: MS2
Ion mode: NEGATIVE
Ionization: ESI
Collision energy: 30eV
Column name: Acquity CSHC18
Retention time: 7.224 min
Base peak: 231.1139
Precursor m/z: 231.1139
Precursor type: [M-H]-
Precursor intensity: 131
m/z	relative intensity
52.8921	47
54.626	38
57.1181	42
57.1718	43
65.1365	41
71.6799	62
75.4143	48
84.9372	47
85.4516	57
85.9449	77
85.976	54
88.6004	51
88.6365	43
93.0323	42
95.0422	39
98.6816	42
100.932	60
102.9787	43
106.4796	44
109.1471	45
115.412	52
123.3492	52
129.9351	334
134.4293	53
139.8593	49
141.9351	352
142.943	226
143.9505	169
144.044	86
157.083	46
157.9302	289
161.8808	55
175.9414	430
184.6102	51
186.9331	422
187.8807	100
187.9413	69
211.7835	55
216.0898	999
231.1138	186
253.3714	52
