Mass spectrum: Catechin; ESI-TOF; MS2; CE: 0.6458333;  [M+H]+
Name: Catechin
Class: NA
Formula: C15H14O6
Exact mass: 290.07904
SMILES: OC1CC2=C(O)C=C(O)C=C2OC1C1=CC(O)=C(O)C=C1
InChI: InChI=1S/C15H14O6/c16-8-4-11(18)9-6-13(20)15(21-14(9)5-8)7-1-2-10(17)12(19)3-7/h1-5,13,15-20H,6H2
Instrument: waters xevo g2 TOF
Instrument type: ESI-TOF
Ms type: MS2
Ion mode: POSITIVE
Ionization: ESI
Collision energy: 0.6458333
Column name: Acquity CSHC18
Retention time: 1.834 min
Base peak: 291.08704
Precursor m/z: 291.08704
Precursor type: [M+H]+
m/z	relative intensity
67.0551	4
68.9982	13
77.0393	40
78.0429	2
83.0498	22
85.0287	3
89.0393	11
91.0548	62
93.0342	30
95.05	35
97.0292	6
105.0341	13
107.0498	6
109.0279	2
111.0449	6
115.0554	8
117.034	16
119.0497	108
120.0527	8
121.0273	5
123.0446	750
124.0484	64
125.0485	1
131.0496	10
135.0446	25
137.0601	4
139.0395	999
140.0429	66
141.0573	4
143.0496	17
145.0285	27
147.0445	282
148.0476	13
151.0394	43
153.0185	1
161.0598	87
162.0636	10
163.0393	223
164.0431	21
165.0549	89
166.0586	5
171.0433	4
172.8627	2
175.04	2
177.0097	10
179.0706	39
180.0808	2
186.0645	1
187.0385	22
188.0437	1
189.0538	30
190.0574	2
191.0167	6
197.0594	18
198.0662	1
201.0205	6
205.0052	13
205.966	16
207.0657	80
208.0685	4
209.0604	1
215.0814	6
225.0558	18
227.0722	3
229.0505	22
230.0549	4
231.0659	9
232.0655	1
241.0499	12
243.0654	36
245.0445	30
247.0268	28
248.0634	5
255.0643	12
259.0604	133
260.0637	22
261.1322	3
265.0183	3
269.0468	2
271.0608	53
272.065	7
273.0757	17
283.0603	14
289.0712	116
290.0744	16
291.0411	40
