Mass spectrum: 4-Hydroxyproline; LC-ESI-QTOF; MS2; CE: 10;  [M-H]-
Name: 4-Hydroxyproline
Class: NA
Formula: C5H9NO3
Exact mass: 131.0582
SMILES: C1C(CNC1C(=O)O)O
InChI: InChI=1S/C5H9NO3/c7-3-1-4(5(8)9)6-2-3/h3-4,6-7H,1-2H2,(H,8,9)
Instrument: impact II
Instrument type: LC-ESI-QTOF
Ms type: MS2
Ion mode: NEGATIVE
Ionization: ESI
Collision energy: 10
Column name: Acquity CSHC18
Retention time: 1.877 min
Base peak: 130.0509
Precursor m/z: 130.0509
Precursor type: [M-H]-
m/z	relative intensity
128.0352	454
130.0509	999
