Mass spectrum: NADPH; LC-ESI-QTOF; MS2; CE: 15 / 50;  [M-H]-
Name: NADPH
Class: (5'->5')-dinucleotides
Formula: C21H30N7O17P3
Exact mass: 745.0911
SMILES: NC(=O)C1=CN(C=CC1)[C@@H]1O[C@H](COP(O)(=O)OP(O)(=O)OC[C@H]2O[C@H]([C@H](OP(O)(O)=O)[C@@H]2O)N2C=NC3=C2N=CN=C3N)[C@@H](O)[C@H]1O
InChI: InChI=1S/C21H30N7O17P3/c22-17-12-19(25-7-24-17)28(8-26-12)21-16(44-46(33,34)35)14(30)11(43-21)6-41-48(38,39)45-47(36,37)40-5-10-13(29)15(31)20(42-10)27-3-1-2-9(4-27)18(23)32/h1,3-4,7-8,10-11,13-16,20-21,29-31H,2,5-6H2,(H2,23,32)(H,36,37)(H,38,39)(H2,22,24,25)(H2,33,34,35)/t10-,11-,13-,14-,15-,16-,20-,21-/m1/s1
Instrument: impact II
Instrument type: LC-ESI-QTOF
Ms type: MS2
Ion mode: NEGATIVE
Ionization: ESI
Collision energy: 15 / 50
Column name: Acquity CSHC18
Retention time: 0.735 min
Base peak: 744.0834
Precursor m/z: 744.0834
Precursor type: [M-H]-
m/z	relative intensity
78.9595	215
134.0473	161
158.9253	557
174.9799	131
176.9361	134
272.9567	322
397.0212	151
408.0116	266
744.084	999
745.0865	298
