Mass spectrum: Citramalic acid; LC-ESI-QTOF; MS2; CE: -10, -35, -60V;  [M-H]-
Name: Citramalic acid
Class: NA
Formula: C5H8O5
Exact mass: 148.0372
SMILES: CC(CC(=O)O)(C(=O)O)O
InChI: InChI=1S/C5H8O5/c1-5(10,4(8)9)2-3(6)7/h10H,2H2,1H3,(H,6,7)(H,8,9)
Instrument: TripleToF 5600; Sciex
Instrument type: LC-ESI-QTOF
Ms type: MS2
Ion mode: NEGATIVE
Ionization: ESI
Collision energy: -10, -35, -60V
Column name: Acquity CSHC18
Retention time: 9.826 min
Base peak: 147.0283
Precursor m/z: 147.0283
Precursor type: [M-H]-
Precursor intensity: 548415.4
m/z	relative intensity
85.0302	154
87.0098	183
101.024	22
102.0581	4
103.0373	22
129.0204	55
144.068	7
146.5677	13
147.0278	999
