Mass spectrum: CAFFEINE; LC-ESI-QTOF; MS2; CE: 40;  [M+H]+
Name: CAFFEINE
Class: NA
Formula: C8H10N4O2
Exact mass: 194.0804
SMILES: CN1C=NC2=C1C(=O)N(C)C(=O)N2C
InChI: InChI=1S/C8H10N4O2/c1-10-4-9-6-5(10)7(13)12(3)8(14)11(6)2/h4H,1-3H3
Instrument: Agilent 6530Â Q-TOF LC/MS
Instrument type: LC-ESI-QTOF
Ms type: MS2
Ion mode: POSITIVE
Ionization: ESI
Collision energy: 40
Column name: NA
Retention time: 0.200 min
Base peak: 195.08880
Precursor m/z: 195.08880
Precursor type: [M+H]+
Precursor intensity: 138.5
m/z	relative intensity
42.0333	38
45.0331	42
54.0326	43
56.0474	50
68.0353	61
69.0428	68
77.0382	76
78.0401	84
81.0401	94
83.0597	95
93.0424	106
97.0363	113
108.05	160
110.0674	163
123.0324	192
135.0753	220
138.0557	999
