Mass spectrum: Tyrosine; LC-ESI-QTOF; MS2; CE: 15 / 50;  [M-H]-
Name: Tyrosine
Class: NA
Formula: C9H11NO3
Exact mass: 181.07389
SMILES: C1=CC(=CC=C1CC(C(=O)O)N)O
InChI: InChI=1S/C9H11NO3/c10-8(9(12)13)5-6-1-3-7(11)4-2-6/h1-4,8,11H,5,10H2,(H,12,13)
Instrument: impact II
Instrument type: LC-ESI-QTOF
Ms type: MS2
Ion mode: NEGATIVE
Ionization: ESI
Collision energy: 15 / 50
Column name: Acquity CSHC18
Retention time: 0.661 min
Base peak: 180.06610
Precursor m/z: 180.06610
Precursor type: [M-H]-
m/z	relative intensity
93.0345	158
119.05	999
120.0534	110
163.0399	947
164.0434	132
180.0665	761
181.0694	104
