Mass spectrum: 3,5,7-Trihydroxyflavone; LC-ESI-QTOF; MS2; CE: 15.00;  [M+H]+
Name: 3,5,7-Trihydroxyflavone
Class: NA
Formula: C15H10O5
Exact mass: 270.0528
SMILES: C1=CC=C(C=C1)C2=C(C(=O)C3=C(C=C(C=C3O2)O)O)O
InChI: InChI=1S/C15H10O5/c16-9-6-10(17)12-11(7-9)20-15(14(19)13(12)18)8-4-2-1-3-5-8/h1-7,16-17,19H
Instrument: Bruker MicrOTOF-Q
Instrument type: LC-ESI-QTOF
Ms type: MS2
Ion mode: POSITIVE
Ionization: ESI
Collision energy: 15.00
Column name: Acquity CSHC18
Retention time: NA
Base peak: 271.0601
Precursor m/z: 271.0601
Precursor type: [M+H]+
m/z	relative intensity
271.0616	172
272.0633	999
