Mass spectrum: 4-Hydroxybenzoic acid; LC-ESI-QTOF; MS2; CE: 15.00;  [2M-3O+Na]+
Name: 4-Hydroxybenzoic acid
Class: NA
Formula: C7H6O3
Exact mass: 138.0317
SMILES: C1=CC(=CC=C1C(=O)O)O
InChI: InChI=1S/C7H6O3/c8-6-3-1-5(2-4-6)7(9)10/h1-4,8H,(H,9,10)
Instrument: Bruker MicrOTOF-Q
Instrument type: LC-ESI-QTOF
Ms type: MS2
Ion mode: POSITIVE
Ionization: ESI
Collision energy: 15.00
Column name: Acquity CSHC18
Retention time: NA
Base peak: 251.0679
Precursor m/z: 251.0679
Precursor type: [2M-3O+Na]+
m/z	relative intensity
60.8301	3
90.5781	2
91.0476	999
91.2155	2
91.3862	4
92.0523	85
97.9742	2
104.6351	2
121.0233	41
151.038	5
193.0662	2
195.074	3
