Mass spectrum: (+)-Afzelechin; LC-ESI-QTOF; MS2; CE: 20-40eV;  [M+H]+
Name: (+)-Afzelechin
Class: flavonoid
Formula: C15H14O5
Exact mass: 274.0841
SMILES: C=1C=C(C=CC1C2(C(CC3=C(C=C(C=C3O2)O)O)(O)[H])[H])O
InChI: InChI=1S/C15H14O5/c16-9-3-1-8(2-4-9)15-13(19)7-11-12(18)5-10(17)6-14(11)20-15/h1-6,13,15-19H,7H2
Instrument: Impact II, Bruker; Dionex 3000, Thermo Scientific
Instrument type: LC-ESI-QTOF
Ms type: MS2
Ion mode: POSITIVE
Ionization: ESI
Collision energy: 20-40eV
Column name: Acquity CSHC18
Retention time: 3.991 min
Base peak: 275.0908
Precursor m/z: 275.0908
Precursor type: [M+H]+
Precursor intensity: 2447.12
m/z	relative intensity
95.0484	169
103.0527	66
107.0476	857
139.0386	999
145.0643	150
149.0581	94
161.0561	68
173.0687	210
174.0658	115
176.1167	66
191.0694	240
192.0728	143
275.0971	75
