Mass spectrum: 4-Hydroxybenzaldehyde; LC-ESI-QTOF; MS2; CE: 50eV;  [M-H]-
Name: 4-Hydroxybenzaldehyde
Class: Benzaldehyde derivative
Formula: C7H6O2
Exact mass: 122.0368
SMILES: C1=CC(=CC=C1C=O)O
InChI: InChI=1S/C7H6O2/c8-5-6-1-3-7(9)4-2-6/h1-5,9H
Instrument: TIMS-TOF Pro, Bruker Daltonik; Elute UHPLC System, Bruker Daltonik
Instrument type: LC-ESI-QTOF
Ms type: MS2
Ion mode: NEGATIVE
Ionization: ESI
Collision energy: 50eV
Column name: Acquity CSHC18
Retention time: 4.677 min
Base peak: 121.0288
Precursor m/z: 121.0288
Precursor type: [M-H]-
Precursor intensity: 28080.56
m/z	relative intensity
35.63	52
91.0175	64
92.0251	299
93.0337	81
120.0214	114
121.0271	999
