Mass spectrum: L-Serine; LC-ESI-ITFT; MS2; CE: 40;  [M+H]+
Name: L-Serine
Class: Organic acids and derivatives; Carboxylic acids and derivatives; Amino acids, peptides, and analogues
Formula: C3H7NO3
Exact mass: 105.04259
SMILES: N[C@@H](CO)C(O)=O
InChI: InChI=1S/C3H7NO3/c4-2(1-5)3(6)7/h2,5H,1,4H2,(H,6,7)/t2-/m0/s1
Instrument: Thermo Scientific Q-Exactive Focus
Instrument type: LC-ESI-ITFT
Ms type: MS2
Ion mode: POSITIVE
Ionization: ESI
Collision energy: 40
Column name: Acquity CSHC18
Retention time: 1.463 min
Base peak: 106.04987
Precursor m/z: 106.04987
Precursor type: [M+H]+
m/z	relative intensity
60.0449	999
81.2807	94
88.9249	95
92.5242	140
99.2469	98
99.7746	94
100.1869	98
104.3073	104
113.7768	110
119.4461	114
