Mass spectrum: 8-iso Prostaglandin F1-alpha; ESI-TOF; MS2; CE: 0.6458333;  [M+H]+
Name: 8-iso Prostaglandin F1-alpha
Class: NA
Formula: C20H36O5
Exact mass: 356.25627
SMILES: OC1CC(O)C(/C=C/C(O)CCCCC)C1CCCCCCC(O)=O
InChI: InChI=1S/C20H36O5/c1-2-3-6-9-15(21)12-13-17-16(18(22)14-19(17)23)10-7-4-5-8-11-20(24)25/h12-13,15-19,21-23H,2-11,14H2,1H3,(H,24,25)/b13-12+
Instrument: waters xevo g2 TOF
Instrument type: ESI-TOF
Ms type: MS2
Ion mode: POSITIVE
Ionization: ESI
Collision energy: 0.6458333
Column name: Acquity CSHC18
Retention time: 3.472 min
Base peak: 357.26427
Precursor m/z: 357.26427
Precursor type: [M+H]+
m/z	relative intensity
67.054	160
71.0852	19
79.0561	145
81.0702	269
91.0549	341
93.0708	342
95.0866	297
97.0661	41
105.0712	484
107.0867	291
109.1026	276
119.0871	472
121.1028	145
129.0711	112
131.0877	322
133.1031	355
134.1062	37
143.0895	78
145.1021	252
146.1069	37
147.1177	230
149.1335	72
157.1017	78
160.1238	19
161.1335	180
163.1488	35
173.1326	127
175.1499	155
183.0977	34
185.1348	47
187.149	149
189.164	94
191.1436	47
203.143	20
205.16	58
211.1513	41
221.154	34
249.1872	13
267.2101	46
277.2147	27
285.2221	77
301.2181	27
303.2329	999
304.2366	189
320.1432	144
321.2438	94
322.2445	22
333.1742	686
348.141	240
349.1458	561
350.1512	90
357.1502	99
359.1906	204
