Mass spectrum: Cytidine; LC-ESI-QTOF; MS2; CE: 15;  [M+HCOOH-H]-
Name: Cytidine
Class: NA
Formula: C9H13N3O5
Exact mass: 243.0855
SMILES: C1=CN(C(=O)N=C1N)C2C(C(C(O2)CO)O)O
InChI: InChI=1S/C9H13N3O5/c10-5-1-2-12(9(16)11-5)8-7(15)6(14)4(3-13)17-8/h1-2,4,6-8,13-15H,3H2,(H2,10,11,16)
Instrument: Bruker MicrOTOF-Q
Instrument type: LC-ESI-QTOF
Ms type: MS2
Ion mode: NEGATIVE
Ionization: ESI
Collision energy: 15
Column name: Acquity CSHC18
Retention time: NA
Base peak: 288.0837
Precursor m/z: 288.0837
Precursor type: [M+HCOOH-H]-
m/z	relative intensity
45.0589	73
46.2216	72
48.2048	52
50.2133	61
53.6103	60
56.0908	63
56.8884	63
58.7248	79
60.8451	63
61.3753	61
63.8337	98
65.5103	54
71.1341	52
74.2785	66
76.664	53
78.2703	43
80.7305	70
82.917	46
84.1216	74
85.1924	54
85.8673	85
87.494	59
91.0323	164
92.9513	103
93.4464	85
95.948	90
97.3332	70
98.8231	76
101.0358	63
102.4668	48
103.5662	43
105.9189	98
106.7541	107
108.9276	472
109.7932	353
111.028	61
111.6772	53
112.8606	61
119.6831	63
126.2209	85
129.9976	48
130.784	76
132.7752	57
135.6609	43
151.4642	87
151.9846	367
152.9038	64
157.5418	72
163.5308	87
167.5075	79
169.1637	52
170.2619	86
170.7874	76
172.0179	46
173.6316	105
174.8215	76
178.3658	76
182.9453	46
189.5385	83
194.2965	59
195.556	90
199.0659	72
207.4178	90
213.5489	75
216.6661	65
217.7741	65
222.9063	48
225.0673	50
226.1485	83
227.8302	79
231.7436	94
232.4911	65
239.1743	76
242.1973	999
244.005	59
245.3295	43
390.2773	68
530.0644	65
533.6643	43
610.4357	48
614.3498	48
631.7399	61
637.494	48
683.6803	48
721.4995	50
751.7658	83
825.6038	48
884.7481	43
987.5263	57
