Mass spectrum: P-HYDROXYPHENYLACETATE; LC-ESI-QFT; MS2; CE: 30eV;  [M+H]+
Name: P-HYDROXYPHENYLACETATE
Class: NA
Formula: C3H7NO2
Exact mass: 89.04768
SMILES: NCCC(O)=O
InChI: InChI=1S/C3H7NO2/c4-2-1-3(5)6/h1-2,4H2,(H,5,6)
Instrument: Q-Exactive Orbitrap, Thermo Scientfic; Ultimate 3000 HPLC, Thermo Scientfic
Instrument type: LC-ESI-QFT
Ms type: MS2
Ion mode: POSITIVE
Ionization: ESI
Collision energy: 30eV
Column name: Acquity CSHC18
Retention time: 4.280 min
Base peak: 90.0550
Precursor m/z: 90.0550
Precursor type: [M+H]+
Precursor intensity: 167
m/z	relative intensity
52.2677	40
53.38	50
53.7003	37
58.0659	78
63.2622	45
66.8463	52
67.0152	48
67.5106	109
68.9527	404
69.9546	50
71.93	79
72.045	999
72.0815	222
72.9376	202
73.0484	108
83.7022	55
89.0714	83
90.0376	70
90.0919	105
90.9482	135
91.0548	445
95.9219	50
100.7063	54
104.8395	45
104.9797	47
