Mass spectrum: pyridoxine; LC-ESI-QTOF; MS2; CE: -10, -35, -60V;  [M-H]-
Name: pyridoxine
Class: NA
Formula: C8H11NO3
Exact mass: 169.0739
SMILES: CC1=NC=C(C(=C1O)CO)CO
InChI: InChI=1S/C8H11NO3/c1-5-8(12)7(4-11)6(3-10)2-9-5/h2,10-12H,3-4H2,1H3
Instrument: TripleToF 5600; Sciex
Instrument type: LC-ESI-QTOF
Ms type: MS2
Ion mode: NEGATIVE
Ionization: ESI
Collision energy: -10, -35, -60V
Column name: Acquity CSHC18
Retention time: 0.731 min
Base peak: 168.0662
Precursor m/z: 168.0662
Precursor type: [M-H]-
Precursor intensity: 266638.9
m/z	relative intensity
79.0186	31
92.0496	28
102.0359	4
107.0378	37
108.0449	154
120.0507	15
121.0534	70
122.0619	249
123.0636	22
135.0324	21
138.0558	173
149.0486	7
150.0567	804
151.0578	121
164.0422	10
166.0515	414
167.0516	52
168.0657	999
