Mass spectrum: 5-Aminopentanoic acid; ESI-TOF; MS2; CE: 0.6458333;  [M+H]+
Name: 5-Aminopentanoic acid
Class: NA
Formula: C5H11NO2
Exact mass: 117.07898
SMILES: NCCCCC(O)=O
InChI: InChI=1S/C5H11NO2/c6-4-2-1-3-5(7)8/h1-4,6H2,(H,7,8)
Instrument: waters xevo g2 TOF
Instrument type: ESI-TOF
Ms type: MS2
Ion mode: POSITIVE
Ionization: ESI
Collision energy: 0.6458333
Column name: Acquity CSHC18
Retention time: 0.527 min
Base peak: 118.08698
Precursor m/z: 118.08698
Precursor type: [M+H]+
m/z	relative intensity
72.9382	21
83.0501	21
95.9735	21
100.0763	21
101.0603	999
102.0784	159
102.1288	21
118.0869	21
119.09	21
124.9941	290
127.0082	462
135.9925	21
138.9902	21
140.0679	21
142.9921	21
162.0493	21
170.9942	144
172.0054	259
173.0146	312
177.0354	21
182.9857	21
189.0079	651
194.9945	402
200.1296	150
202.0206	21
206.9962	21
213.0093	479
213.8879	21
217.0032	21
217.1049	21
224.0616	156
236.9388	21
241.041	170
253.0021	706
259.125	21
270.0699	211
281.0413	541
287.8886	21
288.0769	366
289.0819	21
302.1949	21
310.061	513
311.0621	204
332.0399	112
405.1567	21
427.1388	21
566.1979	21
