Mass spectrum: Luteolin 4'-methyl ether; LC-ESI-QTOF; MS2; CE: 15.08;  [M+H]+
Name: Luteolin 4'-methyl ether
Class: NA
Formula: C16H12O6
Exact mass: 300.0634
SMILES: COC1=C(C=C(C=C1)C2=CC(=O)C3=C(C=C(C=C3O2)O)O)O
InChI: InChI=1S/C16H12O6/c1-21-13-3-2-8(4-10(13)18)14-7-12(20)16-11(19)5-9(17)6-15(16)22-14/h2-7,17-19H,1H3
Instrument: Bruker MicrOTOF-Q
Instrument type: LC-ESI-QTOF
Ms type: MS2
Ion mode: POSITIVE
Ionization: ESI
Collision energy: 15.08
Column name: Acquity CSHC18
Retention time: NA
Base peak: 301.0707
Precursor m/z: 301.0707
Precursor type: [M+H]+
m/z	relative intensity
286.0456	18
287.0484	129
301.0704	176
302.0722	999
