Mass spectrum: Isorhamnetin; LC-ESI-QTOF; MS2; CE: 50eV;  [M+H]+
Name: Isorhamnetin
Class: Flavonol
Formula: C16H12O7
Exact mass: 316.0583
SMILES: COC1=C(C=CC(=C1)C2=C(C(=O)C3=C(C=C(C=C3O2)O)O)O)O
InChI: InChI=1S/C16H12O7/c1-22-11-4-7(2-3-9(11)18)16-15(21)14(20)13-10(19)5-8(17)6-12(13)23-16/h2-6,17-19,21H,1H3
Instrument: TIMS-TOF Pro, Bruker Daltonik; Elute UHPLC System, Bruker Daltonik
Instrument type: LC-ESI-QTOF
Ms type: MS2
Ion mode: POSITIVE
Ionization: ESI
Collision energy: 50eV
Column name: Acquity CSHC18
Retention time: 7.599 min
Base peak: 317.0638
Precursor m/z: 317.0638
Precursor type: [M+H]+
Precursor intensity: 389094.2
m/z	relative intensity
65.0315	1
68.1123	1
81.549	1
92.0222	4
93.0356	3
109.0231	1
111.0068	1
121.0196	2
122.0366	3
124.0147	2
126.03	6
127.0544	1
135.878	1
136.0168	1
139.0384	2
139.8177	1
149.1732	1
151.0374	1
153.0112	21
154.0197	2
155.0493	3
158.0326	1
166.0238	1
172.0534	1
183.0156	1
192.0427	3
198.4763	1
200.0486	3
201.0529	4
203.033	10
204.038	2
207.0657	1
217.0461	4
218.0523	3
219.0281	3
220.0318	1
228.0417	5
229.0443	7
230.0539	1
232.0315	2
232.9072	1
245.0321	6
246.0465	5
257.0424	7
259.0201	1
261.0259	1
271.0586	1
273.0344	2
274.0473	9
275.0515	1
285.037	13
292.5242	1
300.2954	1
301.0299	1
302.0273	23
303.0428	2
316.8971	1
317.061	999
317.3521	1
