Mass spectrum: GLYCOCHOLATE; LC-ESI-QTOF; MS2; CE: 40;  [M-H]-
Name: GLYCOCHOLATE
Class: NA
Formula: C26H43NO6
Exact mass: 465.30904
SMILES: C[C@H](CCC(O)=NCC(O)=O)[C@H]1CC[C@H]2[C@@H]3[C@H](O)C[C@@H]4C[C@H](O)CC[C@]4(C)[C@H]3C[C@H](O)[C@]12C
InChI: InChI=1S/C26H43NO6/c1-14(4-7-22(31)27-13-23(32)33)17-5-6-18-24-19(12-21(30)26(17,18)3)25(2)9-8-16(28)10-15(25)11-20(24)29/h14-21,24,28-30H,4-13H2,1-3H3,(H,27,31)(H,32,33)/t14-,15+,16-,17-,18+,19+,20-,21+,24+,25+,26-/m1/s1
Instrument: Agilent 6530Â Q-TOF LC/MS
Instrument type: LC-ESI-QTOF
Ms type: MS2
Ion mode: NEGATIVE
Ionization: ESI
Collision energy: 40
Column name: NA
Retention time: 0.200 min
Base peak: 464.30943
Precursor m/z: 464.30943
Precursor type: [M-H]-
Precursor intensity: 145
m/z	relative intensity
74.0408	199
402.2862	410
464.2982	999
