Mass spectrum: Harmane; LC-ESI-QTOF; MS2; CE: 15;  [M-H]-
Name: Harmane
Class: NA
Formula: C12H10N2
Exact mass: 182.0844
SMILES: CC1=NC=CC2=C1NC3=CC=CC=C23
InChI: InChI=1S/C12H10N2/c1-8-12-10(6-7-13-8)9-4-2-3-5-11(9)14-12/h2-7,14H,1H3
Instrument: Bruker MicrOTOF-Q
Instrument type: LC-ESI-QTOF
Ms type: MS2
Ion mode: NEGATIVE
Ionization: ESI
Collision energy: 15
Column name: Acquity CSHC18
Retention time: NA
Base peak: 181.0771
Precursor m/z: 181.0771
Precursor type: [M-H]-
m/z	relative intensity
46.1514	142
46.7012	95
48.381	97
50.7567	75
52.393	100
53.6341	75
55.6296	97
59.9799	61
62.6955	74
63.4419	106
67.7149	109
68.8136	83
74.4804	67
84.1219	69
88.7506	106
89.9775	58
93.0172	67
102.5351	69
107.288	103
109.7634	92
111.9944	78
113.819	89
115.2377	58
125.7998	55
126.8354	89
127.2949	103
128.4654	67
137.8116	97
151.2422	69
155.3556	64
157.4479	75
159.2355	83
161.5077	92
165.7324	69
168.0571	86
168.4868	55
170.6271	69
180.6954	999
182.0774	869
206.766	75
280.156	58
304.2736	72
307.4381	69
324.3528	61
382.9683	69
417.2908	83
421.8987	67
470.4692	64
481.205	83
491.4021	69
504.1549	78
570.7531	55
576.5433	58
600.0504	55
604.9226	55
659.6478	58
709.9525	67
733.2644	95
877.2086	72
883.0471	55
943.3193	114
955.3423	103
