Mass spectrum: 5-AMINOLEVULINATE; LC-ESI-QTOF; MS2; CE: 20;  [M+H]+
Name: 5-AMINOLEVULINATE
Class: NA
Formula: C5H9NO3
Exact mass: 131.0582
SMILES: NCC(=O)CCC(O)=O
InChI: InChI=1S/C5H9NO3/c6-3-4(7)1-2-5(8)9/h1-3,6H2,(H,8,9)
Instrument: Agilent 6530Â Q-TOF LC/MS
Instrument type: LC-ESI-QTOF
Ms type: MS2
Ion mode: POSITIVE
Ionization: ESI
Collision energy: 20
Column name: NA
Retention time: 0.200 min
Base peak: 132.06548
Precursor m/z: 132.06548
Precursor type: [M+H]+
Precursor intensity: 121.5
m/z	relative intensity
44.0309	999
