Mass spectrum: Sphingosine; LC-ESI-ITFT; MS2; CE: 30;  [M+H]+
Name: Sphingosine
Class: Organic nitrogen compounds; Organonitrogen compounds; Amines
Formula: C18H37NO2
Exact mass: 299.28243
SMILES: CCCCCCCCCCCCC\C=C\C(O)C(N)CO
InChI: InChI=1S/C18H37NO2/c1-2-3-4-5-6-7-8-9-10-11-12-13-14-15-18(21)17(19)16-20/h14-15,17-18,20-21H,2-13,16,19H2,1H3/b15-14+
Instrument: Thermo Scientific Q-Exactive Focus
Instrument type: LC-ESI-ITFT
Ms type: MS2
Ion mode: POSITIVE
Ionization: ESI
Collision energy: 30
Column name: Acquity CSHC18
Retention time: 0.914 min
Base peak: 300.28970
Precursor m/z: 300.28970
Precursor type: [M+H]+
m/z	relative intensity
55.0548	786
56.0501	999
57.0705	373
67.0548	720
69.0704	718
79.0547	329
81.0703	547
82.0656	274
83.0859	420
95.0859	394
