Mass spectrum: (+)-sesamolin; LC-ESI-QTOF; MS2; CE: 18.98;  [M-H2O+H]+
Name: (+)-sesamolin
Class: NA
Formula: C20H18O7
Exact mass: 370.1053
SMILES: C1C2C(COC2OC3=CC4=C(C=C3)OCO4)C(O1)C5=CC6=C(C=C5)OCO6
InChI: InChI=1S/C20H18O7/c1-3-15-17(25-9-23-15)5-11(1)19-13-7-22-20(14(13)8-21-19)27-12-2-4-16-18(6-12)26-10-24-16/h1-6,13-14,19-20H,7-10H2
Instrument: Bruker MicrOTOF-Q
Instrument type: LC-ESI-QTOF
Ms type: MS2
Ion mode: POSITIVE
Ionization: ESI
Collision energy: 18.98
Column name: Acquity CSHC18
Retention time: NA
Base peak: 353.1020
Precursor m/z: 353.1020
Precursor type: [M-H2O+H]+
m/z	relative intensity
135.0444	25
137.0237	25
151.039	29
157.0637	29
173.0608	30
185.0595	30
186.0654	31
187.0737	32
189.0551	33
197.0594	33
198.0671	33
215.0704	34
219.0804	34
225.057	38
235.0755	41
237.0899	46
247.0754	46
248.0798	58
249.0897	60
253.0501	61
259.0759	63
263.0693	69
265.0843	72
275.07	73
276.0736	77
277.086	83
278.0635	101
279.0663	125
282.0521	130
283.0577	137
290.0579	139
293.0805	140
294.084	159
305.0806	162
306.0822	258
307.0887	284
308.0701	290
320.0683	309
323.0891	373
335.0915	466
336.0925	999
