Mass spectrum: N-METHYLGLUTAMATE; LC-ESI-QTOF; MS2; CE: 40;  [M-H]-
Name: N-METHYLGLUTAMATE
Class: NA
Formula: C6H11NO4
Exact mass: 161.06881
SMILES: CNC(CCC(=O)O)C(=O)O
InChI: InChI=1S/C6H11NO4/c1-7-4(6(10)11)2-3-5(8)9/h4,7H,2-3H2,1H3,(H,8,9)(H,10,11)
Instrument: Agilent 6530Â Q-TOF LC/MS
Instrument type: LC-ESI-QTOF
Ms type: MS2
Ion mode: NEGATIVE
Ionization: ESI
Collision energy: 40
Column name: NA
Retention time: 0.200 min
Base peak: 160.06093
Precursor m/z: 160.06093
Precursor type: [M-H]-
Precursor intensity: 162
m/z	relative intensity
41.0171	405
42.0342	467
44.9996	538
70.0315	582
71.0163	999
