Mass spectrum: METHYL 4-AMINOBUTYRATE; LC-ESI-QTOF; MS2; CE: 10;  [M+H]+
Name: METHYL 4-AMINOBUTYRATE
Class: NA
Formula: C5H11NO2
Exact mass: 117.07898
SMILES: COC(CCCN)=O
InChI: InChI=1S/C5H11NO2/c1-8-5(7)3-2-4-6/h2-4,6H2,1H3
Instrument: Agilent 6530Â Q-TOF LC/MS
Instrument type: LC-ESI-QTOF
Ms type: MS2
Ion mode: POSITIVE
Ionization: ESI
Collision energy: 10
Column name: NA
Retention time: 0.200 min
Base peak: 118.08768
Precursor m/z: 118.08768
Precursor type: [M+H]+
Precursor intensity: 150.5
m/z	relative intensity
41.052	39
43.04	39
45.0308	40
58.0865	44
59.2101	51
59.5213	52
59.768	59
67.0333	61
68.0554	69
69.0566	131
86.0761	209
89.9089	250
101.251	304
102.0588	416
102.2558	750
118.1215	957
121.0545	999
