Mass spectrum: Cysteic acid; LC-ESI-ITFT; MS2; CE: 30;  [M-H]-
Name: Cysteic acid
Class: Organic acids and derivatives; Carboxylic acids and derivatives; Amino acids, peptides, and analogues
Formula: C3H7NO5S
Exact mass: 169.00449
SMILES: NC(CS(O)(=O)=O)C(O)=O
InChI: InChI=1S/C3H7NO5S/c4-2(3(5)6)1-10(7,8)9/h2H,1,4H2,(H,5,6)(H,7,8,9)
Instrument: Thermo Scientific Q-Exactive Focus
Instrument type: LC-ESI-ITFT
Ms type: MS2
Ion mode: NEGATIVE
Ionization: ESI
Collision energy: 30
Column name: Acquity CSHC18
Retention time: 0.925 min
Base peak: 167.99722
Precursor m/z: 167.99722
Precursor type: [M-H]-
m/z	relative intensity
50.1424	2
71.0126	235
79.9561	24
80.9639	999
86.9256	2
88.3157	2
111.8281	3
123.4051	3
128.1428	2
147.4438	3
