Mass spectrum: Maltotetraose; ESI-TOF; MS2; CE: 0.6458333;  [M+H]+
Name: Maltotetraose
Class: NA
Formula: C24H42O21
Exact mass: 666.22186
SMILES: OCC1OC(OC2C(CO)OC(OC3C(CO)OC(OC4C(CO)OC(O)C(O)C4O)C(O)C3O)C(O)C2O)C(O)C(O)C1O
InChI: InChI=1S/C24H42O21/c25-1-5-9(29)10(30)15(35)22(40-5)44-19-7(3-27)42-24(17(37)12(19)32)45-20-8(4-28)41-23(16(36)13(20)33)43-18-6(2-26)39-21(38)14(34)11(18)31/h5-38H,1-4H2
Instrument: waters xevo g2 TOF
Instrument type: ESI-TOF
Ms type: MS2
Ion mode: POSITIVE
Ionization: ESI
Collision energy: 0.6458333
Column name: Acquity CSHC18
Retention time: 0.560 min
Base peak: 667.22986
Precursor m/z: 667.22986
Precursor type: [M+H]+
m/z	relative intensity
72.9383	144
85.0292	821
96.9615	3
96.9616	3
97.0285	212
101.9405	93
101.9409	57
109.0287	92
127.039	510
130.0082	6
135.9922	3
135.9929	3
135.9931	3
138.9903	3
138.991	3
139.9757	44
141.9591	3
145.0502	999
146.0537	46
163.0606	248
164.0632	3
178.1227	3
289.0927	3
325.1134	255
326.1167	27
327.1198	3
379.0331	51
396.0349	38
439.0535	84
487.1665	61
488.1693	3
541.0821	124
601.1063	509
602.1077	119
649.2185	45
650.2213	3
667.2296	3
686.2056	3
689.2103	558
690.2159	3
720.1386	3
721.1453	3
