Mass spectrum: Cyanidin-3-coumaroyl rutinoside-5-glucoside; LC-ESI-ITFT; MS2; CE: 35eV;  [M-2H]-
Name: Cyanidin-3-coumaroyl rutinoside-5-glucoside
Class: Anthocyanidin
Formula: [C42H47O22]+
Exact mass: 903.2553
SMILES: CC1C(C(C(C(O1)OCC2C(C(C(C(O2)OC3=C([O+]=C4C=C(C=C(C4=C3)OC5C(C(C(C(O5)CO)O)O)O)O)C6=CC(=C(C=C6)O)O)O)O)O)O)O)OC(=O)C=CC7=CC=C(C=C7)O
InChI: InChI=1S/C42H46O22/c1-16-38(64-29(48)9-4-17-2-6-19(44)7-3-17)34(53)37(56)40(58-16)57-15-28-31(50)33(52)36(55)42(63-28)61-26-13-21-24(59-39(26)18-5-8-22(46)23(47)10-18)11-20(45)12-25(21)60-41-35(54)32(51)30(49)27(14-43)62-41/h2-13,16,27-28,30-38,40-43,49-56H,14-15H2,1H3,(H3-,44,45,46,47,48)/p+1
Instrument: LTQ Orbitrap XL, Thermo Scientfic; Dionex Ultimate 300
Instrument type: LC-ESI-ITFT
Ms type: MS2
Ion mode: NEGATIVE
Ionization: ESI
Collision energy: 35eV
Column name: Lichrospher C18 Column 250*4 5um, Interchim
Retention time: 56.46 min
Base peak: 901.2437
Precursor m/z: 901.2437
Precursor type: [M-2H]-
m/z	relative intensity
901.1608	999
