Mass spectrum: D-Fructose; ESI-TOF; MS2; CE: 6.0000000;  [M+H]+
Name: D-Fructose
Class: NA
Formula: C6H12O6
Exact mass: 180.06339
SMILES: OCC1OC(O)(CO)C(O)C1O
InChI: InChI=1S/C6H12O6/c7-1-3-4(9)5(10)6(11,2-8)12-3/h3-5,7-11H,1-2H2
Instrument: waters xevo g2 TOF
Instrument type: ESI-TOF
Ms type: MS2
Ion mode: POSITIVE
Ionization: ESI
Collision energy: 6.0000000
Column name: Acquity CSHC18
Retention time: 0.563 min
Base peak: 181.07139
Precursor m/z: 181.07139
Precursor type: [M+H]+
m/z	relative intensity
85.0291	51
99.0444	10
121.0396	9
127.0395	124
145.0504	41
180.0868	22
187.079	18
198.0989	13
200.0452	86
203.0535	999
204.0562	16
216.9787	16
233.9833	43
234.9882	10
243.9669	47
250.9534	8
258.0055	13
275.9976	13
280.9959	24
290.0787	28
295.0121	16
306.0045	20
307.0139	14
322.0177	21
324.0142	458
325.0189	75
383.1177	43
385.0926	27
414.047	82
415.0532	25
