Mass spectrum: (E)-p-coumaric acid; LC-ESI-QTOF; MS2; CE: 15.00;  [M-H2O+H]+
Name: (E)-p-coumaric acid
Class: NA
Formula: C9H8O3
Exact mass: 164.0473
SMILES: C1=CC(=CC=C1C=CC(=O)O)O
InChI: InChI=1S/C9H8O3/c10-8-4-1-7(2-5-8)3-6-9(11)12/h1-6,10H,(H,11,12)
Instrument: Bruker MicrOTOF-Q
Instrument type: LC-ESI-QTOF
Ms type: MS2
Ion mode: POSITIVE
Ionization: ESI
Collision energy: 15.00
Column name: Acquity CSHC18
Retention time: NA
Base peak: 147.0441
Precursor m/z: 147.0441
Precursor type: [M-H2O+H]+
m/z	relative intensity
91.0476	141
92.0529	13
96.0529	8
118.0337	9
119.0457	999
119.2948	10
120.0502	82
123.0396	51
123.8557	14
147.0415	709
147.1817	8
148.0441	65
148.2597	8
165.0159	11
322.5734	8
470.4407	10
