Mass spectrum: Norvaline; LC-ESI-QTOF; MS2; CE: 30;  [M-H]-
Name: Norvaline
Class: NA
Formula: C5H11NO2
Exact mass: 117.0790
SMILES: CCC[C@@H](N)C(O)=O
InChI: InChI=1S/C5H11NO2/c1-2-3-4(6)5(7)8/h4H,2-3,6H2,1H3,(H,7,8)/t4-/m1/s1
Instrument: impact II
Instrument type: LC-ESI-QTOF
Ms type: MS2
Ion mode: NEGATIVE
Ionization: ESI
Collision energy: 30
Column name: Acquity CSHC18
Retention time: 2.002 min
Base peak: 116.0716
Precursor m/z: 116.0716
Precursor type: [M-H]-
m/z	relative intensity
99.9259	999
