Mass spectrum: crtpytochlorogenic acid; LC-ESI-QFT; MS2; CE: NCE_15_30_55;  [M-H]-
Name: crtpytochlorogenic acid
Class: NA
Formula: C16H18O9
Exact mass: 354.0951
SMILES: C1C(C(C(CC1(C(=O)O)O)O)OC(=O)C=CC2=CC(=C(C=C2)O)O)O
InChI: InChI=1S/C16H18O9/c17-9-3-1-8(5-10(9)18)2-4-13(21)25-14-11(19)6-16(24,15(22)23)7-12(14)20/h1-5,11-12,14,17-20,24H,6-7H2,(H,22,23)
Instrument: Thermo_Qexactive_Plus
Instrument type: LC-ESI-QFT
Ms type: MS2
Ion mode: NEGATIVE
Ionization: ESI
Collision energy: NCE_15_30_55
Column name: Acquity CSHC18
Retention time: 3.158 min
Base peak: 353.0880
Precursor m/z: 353.0880
Precursor type: [M-H]-
Precursor intensity: 489121000
m/z	relative intensity
59.0124	27
70.7113	27
71.0123	27
75.3537	28
79.846	29
80.7365	29
85.0279	29
92.2189	30
93.0332	32
111.044	38
127.0392	45
135.0445	47
137.0236	60
155.0341	63
161.0227	66
173.0457	75
174.0487	87
179.0363	91
180.037	104
181.6006	425
191.0572	498
192.0607	500
193.9183	660
353.0904	999
