Mass spectrum: Cortisol; LC-ESI-QFT; MS2; CE: 30eV;  [M+H]+
Name: Cortisol
Class: NA
Formula: C21H30O5
Exact mass: 362.20932
SMILES: [H][C@@]12CC[C@](O)(C(=O)CO)[C@@]1(C)C[C@H](O)[C@@]1([H])[C@@]2([H])CCC2=CC(=O)CC[C@]12C
InChI: InChI=1S/C21H30O5/c1-19-7-5-13(23)9-12(19)3-4-14-15-6-8-21(26,17(25)11-22)20(15,2)10-16(24)18(14)19/h9,14-16,18,22,24,26H,3-8,10-11H2,1-2H3/t14-,15-,16-,18+,19-,20-,21-/m0/s1
Instrument: Q-Exactive Orbitrap, Thermo Scientfic; Ultimate 3000 HPLC, Thermo Scientfic
Instrument type: LC-ESI-QFT
Ms type: MS2
Ion mode: POSITIVE
Ionization: ESI
Collision energy: 30eV
Column name: Acquity CSHC18
Retention time: 8.483 min
Base peak: 363.2166
Precursor m/z: 363.2166
Precursor type: [M+H]+
Precursor intensity: 144
m/z	relative intensity
69.0523	20
77.0313	22
81.0521	33
95.0678	46
99.0626	51
105.0576	56
107.0726	62
109.0833	64
111.0624	67
117.0682	67
123.0805	69
133.083	75
135.0987	80
137.0778	86
145.083	89
147.0986	93
149.1142	95
151.0934	97
155.0778	111
157.0924	111
159.0986	112
161.1142	115
163.0934	115
165.1091	119
167.0963	122
171.0985	128
173.1142	140
175.1296	143
177.1092	151
179.0962	152
185.1143	155
187.1118	168
189.1089	171
191.1117	171
193.1119	175
195.1096	187
197.1143	196
199.1298	204
201.1271	208
203.125	210
205.1116	217
207.1275	241
209.1142	242
211.1299	247
213.1455	255
217.1402	258
219.1272	278
223.1298	279
225.1453	306
229.1403	314
231.1269	339
233.1434	344
235.1298	348
237.1456	359
239.1429	369
241.1581	372
243.1559	372
245.1428	388
249.1456	407
251.1609	412
252.1644	435
253.1586	447
261.156	459
263.1611	481
269.1717	508
281.1717	510
285.1674	607
287.1826	656
299.182	999
