Mass spectrum: Laudanosine; LC-ESI-QTOF; MS2; CE: 19.36 / 19.37;  [M+H]+
Name: Laudanosine
Class: NA
Formula: C21H27NO4
Exact mass: 357.1940
SMILES: CN1CCC2=CC(=C(C=C2C1CC3=CC(=C(C=C3)OC)OC)OC)OC
InChI: InChI=1S/C21H27NO4/c1-22-9-8-15-12-20(25-4)21(26-5)13-16(15)17(22)10-14-6-7-18(23-2)19(11-14)24-3/h6-7,11-13,17H,8-10H2,1-5H3
Instrument: Bruker MicrOTOF-Q
Instrument type: LC-ESI-QTOF
Ms type: MS2
Ion mode: POSITIVE
Ionization: ESI
Collision energy: 19.36 / 19.37
Column name: Acquity CSHC18
Retention time: NA
Base peak: 358.2013
Precursor m/z: 358.2013
Precursor type: [M+H]+
m/z	relative intensity
151.0748	30
165.0912	31
174.069	32
189.0919	49
190.0932	53
191.0977	85
206.1232	92
207.1212	100
296.1411	108
297.1433	125
312.1367	148
315.1593	151
327.1605	299
328.1635	521
329.1715	544
358.2026	610
359.2049	999
