Mass spectrum: Herniarin; LC-ESI-QTOF; MS2; CE: 15.00;  [M+H]+
Name: Herniarin
Class: NA
Formula: C10H8O3
Exact mass: 176.0473
SMILES: COC1=CC2=C(C=C1)C=CC(=O)O2
InChI: InChI=1S/C10H8O3/c1-12-8-4-2-7-3-5-10(11)13-9(7)6-8/h2-6H,1H3
Instrument: Bruker MicrOTOF-Q
Instrument type: LC-ESI-QTOF
Ms type: MS2
Ion mode: POSITIVE
Ionization: ESI
Collision energy: 15.00
Column name: Acquity CSHC18
Retention time: NA
Base peak: 177.0546
Precursor m/z: 177.0546
Precursor type: [M+H]+
m/z	relative intensity
118.0439	18
121.0663	21
122.0693	21
133.0658	29
134.0624	46
149.0601	107
162.0313	170
177.0555	252
178.0584	999
