Mass spectrum: Nicotinuric acid; LC-ESI-ITFT; MS2; CE: 20;  [M-H]-
Name: Nicotinuric acid
Class: Organic acids and derivatives; Carboxylic acids and derivatives; Amino acids, peptides, and analogues
Formula: C8H8N2O3
Exact mass: 180.05349
SMILES: OC(=O)CNC(=O)C1=CN=CC=C1
InChI: InChI=1S/C8H8N2O3/c11-7(12)5-10-8(13)6-2-1-3-9-4-6/h1-4H,5H2,(H,10,13)(H,11,12)
Instrument: Thermo Scientific Q-Exactive Focus
Instrument type: LC-ESI-ITFT
Ms type: MS2
Ion mode: NEGATIVE
Ionization: ESI
Collision energy: 20
Column name: Acquity CSHC18
Retention time: 0.644 min
Base peak: 179.04622
Precursor m/z: 179.04622
Precursor type: [M-H]-
m/z	relative intensity
67.4053	56
78.0336	572
90.9969	62
94.0285	66
106.0287	57
108.0442	981
122.0236	242
133.0396	999
135.0552	802
153.6353	60
