Mass spectrum: DL-O-Phosphoserine; LC-ESI-ITFT; MS2; CE: 100;  [M+H]+
Name: DL-O-Phosphoserine
Class: Organic acids and derivatives; Carboxylic acids and derivatives; Amino acids, peptides, and analogues
Formula: C3H8NO6P
Exact mass: 185.00892
SMILES: NC(COP(O)(O)=O)C(O)=O
InChI: InChI=1S/C3H8NO6P/c4-2(3(5)6)1-10-11(7,8)9/h2H,1,4H2,(H,5,6)(H2,7,8,9)
Instrument: Thermo Scientific Q-Exactive Focus
Instrument type: LC-ESI-ITFT
Ms type: MS2
Ion mode: POSITIVE
Ionization: ESI
Collision energy: 100
Column name: Acquity CSHC18
Retention time: NA
Base peak: 186.01620
Precursor m/z: 186.01620
Precursor type: [M+H]+
m/z	relative intensity
62.9635	19
63.6423	20
79.034	20
84.7852	21
85.8959	18
98.823	20
98.9844	999
105.114	18
169.8082	18
209.1356	19
