Mass spectrum: Arginine; LC-ESI-QTOF; MS2; CE: 15 / 50;  [M+H]+
Name: Arginine
Class: NA
Formula: C6H14N4O2
Exact mass: 174.11168
SMILES: C(CC(C(=O)O)N)CN=C(N)N
InChI: InChI=1S/C6H14N4O2/c7-4(5(11)12)2-1-3-10-6(8)9/h4H,1-3,7H2,(H,11,12)(H4,8,9,10)
Instrument: impact II
Instrument type: LC-ESI-QTOF
Ms type: MS2
Ion mode: POSITIVE
Ionization: ESI
Collision energy: 15 / 50
Column name: Acquity CSHC18
Retention time: 0.540 min
Base peak: 175.11870
Precursor m/z: 175.11870
Precursor type: [M+H]+
m/z	relative intensity
60.0563	743
70.0658	999
116.0708	295
130.0976	183
158.0926	210
175.1191	592
175.1345	110
