Mass spectrum: 18:0 SM (d18:1/18:0); ESI-TOF; MS2; CE: 6.0000000;  [M+H]+
Name: 18:0 SM (d18:1/18:0)
Class: NA
Formula: C41H83N2O6P
Exact mass: 730.59888
SMILES: [H]OC([H])(C([H])=C([H])C([H])([H])C([H])([H])C([H])([H])C([H])([H])C([H])([H])C([H])([H])C([H])([H])C([H])([H])C([H])([H])C([H])([H])C([H])([H])C([H])([H])C([H])([H])[H])C([H])(N([H])C(=O)C([H])([H])C([H])([H])C([H])([H])C([H])([H])C([H])([H])C([H])([H])C([H])([H])C([H])([H])C([H])([H])C([H])([H])C([H])([H])C([H])([H])C([H])([H])C([H])([H])C([H])([H])C([H])([H])C([H])([H])[H])C([H])([H])OP(=O)([O-])OC([H])([H])C([H])([H])[N+](C([H])([H])[H])(C([H])([H])[H])C([H])([H])[H]
InChI: InChI=1S/C41H83N2O6P/c1-6-8-10-12-14-16-18-20-21-23-25-27-29-31-33-35-41(45)42-39(38-49-50(46,47)48-37-36-43(3,4)5)40(44)34-32-30-28-26-24-22-19-17-15-13-11-9-7-2/h32,34,39-40,44H,6-31,33,35-38H2,1-5H3,(H-,42,45,46,47)
Instrument: waters xevo g2 TOF
Instrument type: ESI-TOF
Ms type: MS2
Ion mode: POSITIVE
Ionization: ESI
Collision energy: 6.0000000
Column name: Acquity CSHC18
Retention time: 11.147 min
Base peak: 731.60688
Precursor m/z: 731.60688
Precursor type: [M+H]+
m/z	relative intensity
101.9652	5
184.0732	34
216.9849	15
376.2738	5
384.2613	39
384.7616	20
385.2799	999
385.7814	454
386.2826	77
386.7818	24
387.2773	7
393.2664	42
393.7676	23
394.2664	16
395.263	7
403.1472	1
427.2564	34
427.7578	17
435.2417	16
435.7436	7
513.7058	15
533.4429	9
553.3713	17
561.473	7
588.3837	16
619.3343	13
642.4826	26
642.9837	17
643.4827	8
731.605	684
732.6062	331
