Mass spectrum: L-Cystathionine; LC-ESI-ITFT; MS2; CE: 40;  [M-H]-
Name: L-Cystathionine
Class: Organic acids and derivatives; Carboxylic acids and derivatives; Amino acids, peptides, and analogues
Formula: C7H14N2O4S
Exact mass: 222.06743
SMILES: N[C@@H](CCSC[C@H](N)C(O)=O)C(O)=O
InChI: InChI=1S/C7H14N2O4S/c8-4(6(10)11)1-2-14-3-5(9)7(12)13/h4-5H,1-3,8-9H2,(H,10,11)(H,12,13)/t4-,5-/m0/s1
Instrument: Thermo Scientific Q-Exactive Focus
Instrument type: LC-ESI-ITFT
Ms type: MS2
Ion mode: NEGATIVE
Ionization: ESI
Collision energy: 40
Column name: Acquity CSHC18
Retention time: 1.475 min
Base peak: 221.06015
Precursor m/z: 221.06015
Precursor type: [M-H]-
m/z	relative intensity
60.2755	427
63.9612	999
111.1094	455
118.9163	418
169.3164	508
193.0243	469
218.277	464
227.4962	500
229.7181	423
238.2516	487
