Mass spectrum: XANTHURENATE; LC-ESI-QFT; MS2; CE: 30eV;  [M-H]-
Name: XANTHURENATE
Class: NA
Formula: C10H7NO4
Exact mass: 205.03751
SMILES: OC(=O)C1=NC2=C(O)C=CC=C2C(O)=C1
InChI: InChI=1S/C10H7NO4/c12-7-3-1-2-5-8(13)4-6(10(14)15)11-9(5)7/h1-4,12H,(H,11,13)(H,14,15)
Instrument: Q-Exactive Orbitrap, Thermo Scientfic; Ultimate 3000 HPLC, Thermo Scientfic
Instrument type: LC-ESI-QFT
Ms type: MS2
Ion mode: NEGATIVE
Ionization: ESI
Collision energy: 30eV
Column name: Acquity CSHC18
Retention time: 4.402 min
Base peak: 204.0302
Precursor m/z: 204.0302
Precursor type: [M-H]-
Precursor intensity: 153
m/z	relative intensity
56.1588	3
56.8087	3
57.0605	4
60.5613	3
63.4337	4
68.6498	4
72.0131	4
78.5282	4
91.3739	4
96.9495	4
99.3689	4
102.5602	4
104.582	5
112.8578	4
112.8864	5
116.049	35
123.8763	19
132.194	5
141.8669	5
147.7615	6
160.0392	999
161.0426	74
167.0822	4
167.8074	4
173.0519	4
186.8971	5
204.0293	92
205.0324	5
221.9528	5
222.3403	4
