Mass spectrum: Umbelliferone; LC-ESI-ITFT; MS2; CE: 100;  [M-H]-
Name: Umbelliferone
Class: Phenylpropanoids and polyketides; Coumarins and derivatives; Hydroxycoumarins
Formula: C9H6O3
Exact mass: 162.03169
SMILES: OC1=CC2=C(C=C1)C=CC(=O)O2
InChI: InChI=1S/C9H6O3/c10-7-3-1-6-2-4-9(11)12-8(6)5-7/h1-5,10H
Instrument: Thermo Scientific Q-Exactive Focus
Instrument type: LC-ESI-ITFT
Ms type: MS2
Ion mode: NEGATIVE
Ionization: ESI
Collision energy: 100
Column name: Acquity CSHC18
Retention time: 2.588 min
Base peak: 161.02441
Precursor m/z: 161.02441
Precursor type: [M-H]-
m/z	relative intensity
63.2646	869
66.3538	932
67.4356	923
73.318	911
79.5926	999
81.7783	894
88.3504	864
89.5063	888
104.873	899
124.8372	916
