Mass spectrum: C18 Lyso PAF; ESI-TOF; MS2; CE: 6.0000000;  [M+H]+
Name: C18 Lyso PAF
Class: NA
Formula: C26H56NO6P
Exact mass: 509.38453
SMILES: [H]OC([H])(C([H])([H])OC([H])([H])C([H])([H])C([H])([H])C([H])([H])C([H])([H])C([H])([H])C([H])([H])C([H])([H])C([H])([H])C([H])([H])C([H])([H])C([H])([H])C([H])([H])C([H])([H])C([H])([H])C([H])([H])C([H])([H])C([H])([H])[H])C([H])([H])OP(=O)([O-])OC([H])([H])C([H])([H])[N+](C([H])([H])[H])(C([H])([H])[H])C([H])([H])[H]
InChI: InChI=1S/C26H56NO6P/c1-5-6-7-8-9-10-11-12-13-14-15-16-17-18-19-20-22-31-24-26(28)25-33-34(29,30)32-23-21-27(2,3)4/h26,28H,5-25H2,1-4H3
Instrument: waters xevo g2 TOF
Instrument type: ESI-TOF
Ms type: MS2
Ion mode: POSITIVE
Ionization: ESI
Collision energy: 6.0000000
Column name: Acquity CSHC18
Retention time: 8.388 min
Base peak: 510.39253
Precursor m/z: 510.39253
Precursor type: [M+H]+
m/z	relative intensity
104.1077	10
148.5331	1
156.5193	2
266.6853	3
274.673	422
275.1761	127
275.6756	10
276.1776	4
276.6716	9
277.1734	2
282.6604	10
283.1608	5
283.6609	19
284.1624	4
284.6588	3
314.0308	2
316.6512	3
340.1431	2
366.23	2
445.2392	4
492.3814	1
510.393	999
511.396	312
