Mass spectrum: Methyl linolenate; LC-ESI-QTOF; MS2; CE: 15.00;  [M+H]+
Name: Methyl linolenate
Class: NA
Formula: C19H32O2
Exact mass: 292.2402
SMILES: CCC=CCC=CCC=CCCCCCCCC(=O)OC
InChI: InChI=1S/C19H32O2/c1-3-4-5-6-7-8-9-10-11-12-13-14-15-16-17-18-19(20)21-2/h4-5,7-8,10-11H,3,6,9,12-18H2,1-2H3
Instrument: Bruker MicrOTOF-Q
Instrument type: LC-ESI-QTOF
Ms type: MS2
Ion mode: POSITIVE
Ionization: ESI
Collision energy: 15.00
Column name: Acquity CSHC18
Retention time: NA
Base peak: 293.2475
Precursor m/z: 293.2475
Precursor type: [M+H]+
m/z	relative intensity
119.0835	30
121.0978	31
123.1145	32
131.0833	41
133.0998	41
135.1146	44
137.1309	55
145.1003	57
147.1157	58
149.1298	62
151.1437	67
159.1164	70
161.1318	75
163.1441	79
165.1312	79
173.132	84
174.1346	101
175.1471	110
177.1593	114
179.1431	115
187.1487	119
188.1521	120
191.1431	122
195.1427	123
201.1642	123
205.1596	129
209.1548	134
215.1797	135
217.1937	143
219.2072	144
223.1698	153
233.2253	158
237.1851	178
243.2105	187
244.213	193
251.2011	311
261.221	315
262.2247	520
293.2475	805
294.2498	999
