Mass spectrum: GUANOSINE DIPHOSPHATE MANNOSE; LC-ESI-QFT; MS2; CE: 30eV;  [M-H]-
Name: GUANOSINE DIPHOSPHATE MANNOSE
Class: NA
Formula: C16H25N5O16P2
Exact mass: 605.07715
SMILES: NC1=NC2=C(N=CN2[C@@H]2O[C@H](COP(O)(=O)OP(O)(=O)O[C@H]3O[C@H](CO)[C@@H](O)[C@H](O)[C@@H]3O)[C@@H](O)[C@H]2O)C(=O)N1
InChI: InChI=1S/C16H25N5O16P2/c17-16-19-12-6(13(28)20-16)18-3-21(12)14-10(26)8(24)5(34-14)2-33-38(29,30)37-39(31,32)36-15-11(27)9(25)7(23)4(1-22)35-15/h3-5,7-11,14-15,22-27H,1-2H2,(H,29,30)(H,31,32)(H3,17,19,20,28)/t4-,5-,7-,8-,9+,10-,11+,14-,15-/m1/s1
Instrument: Q-Exactive Orbitrap, Thermo Scientfic; Ultimate 3000 HPLC, Thermo Scientfic
Instrument type: LC-ESI-QFT
Ms type: MS2
Ion mode: NEGATIVE
Ionization: ESI
Collision energy: 30eV
Column name: Acquity CSHC18
Retention time: 0.618 min
Base peak: 604.0699
Precursor m/z: 604.0699
Precursor type: [M-H]-
Precursor intensity: 180
m/z	relative intensity
53.3466	32
56.189	33
56.606	31
60.7871	34
61.031	34
62.8967	31
75.1124	37
78.9575	999
96.9682	72
117.5395	35
128.0553	37
136.6313	38
140.839	41
144.5629	44
150.041	404
158.9242	601
174.9794	63
176.9348	63
201.1048	39
212.8488	39
241.0117	49
260.957	50
272.9578	209
320.9787	555
344.0402	489
362.0515	195
424.0069	953
442.0176	503
530.166	45
586.8908	45
604.0715	65
617.3316	40
