Mass spectrum: PYRIDOXAL; LC-ESI-QTOF; MS2; CE: 40;  [M-H]-
Name: PYRIDOXAL
Class: NA
Formula: C8H9NO3
Exact mass: 167.05824
SMILES: CC1=NC=C(CO)C(C=O)=C1O
InChI: InChI=1S/C8H9NO3/c1-5-8(12)7(4-11)6(3-10)2-9-5/h2,4,10,12H,3H2,1H3
Instrument: Agilent 6530Â Q-TOF LC/MS
Instrument type: LC-ESI-QTOF
Ms type: MS2
Ion mode: NEGATIVE
Ionization: ESI
Collision energy: 40
Column name: NA
Retention time: 0.200 min
Base peak: 166.05257
Precursor m/z: 166.05257
Precursor type: [M-H]-
Precursor intensity: 171
m/z	relative intensity
40.0201	139
41.0166	153
43.0182	156
45.0077	157
49.0194	167
50.0141	175
51.0331	177
53.0393	182
63.0274	184
64.0215	206
65.0187	208
66.0336	215
67.0269	236
78.0242	248
79.038	277
80.0481	282
93.0203	377
94.0324	409
106.0341	498
107.0492	542
108.0602	557
122.0372	857
135.0399	861
136.0414	999
