Mass spectrum: O-Acetylserine; LC-ESI-ITFT; MS2; CE: 20;  [M+H]+
Name: O-Acetylserine
Class: Organic acids and derivatives; Carboxylic acids and derivatives; Amino acids, peptides, and analogues
Formula: C5H9NO4
Exact mass: 147.05316
SMILES: CC(=O)OC[C@H](N)C(O)=O
InChI: InChI=1S/C5H9NO4/c1-3(7)10-2-4(6)5(8)9/h4H,2,6H2,1H3,(H,8,9)/t4-/m0/s1
Instrument: Thermo Scientific Q-Exactive Focus
Instrument type: LC-ESI-ITFT
Ms type: MS2
Ion mode: POSITIVE
Ionization: ESI
Collision energy: 20
Column name: Acquity CSHC18
Retention time: 0.631 min
Base peak: 148.06042
Precursor m/z: 148.06042
Precursor type: [M+H]+
m/z	relative intensity
56.0501	5
60.045	999
70.0292	99
71.5355	4
84.0448	23
88.0397	405
106.0502	96
128.2033	4
130.7632	4
157.7307	6
