Mass spectrum: Feruperic acid; LC-ESI-QTOF; MS2; CE: 50eV;  [M+H-H2O]+
Name: Feruperic acid
Class: NA
Formula: C12H12O4
Exact mass: 220.0736
SMILES: OC(/C=C/C=C/C1=CC=C(O)C(OC)=C1)=O
InChI: InChI=1S/C12H12O4/c1-16-11-8-9(6-7-10(11)13)4-2-3-5-12(14)15/h2-8,13H,1H3,(H,14,15)/b4-2+,5-3+
Instrument: TIMS-TOF Pro, Bruker Daltonik; Elute UHPLC System, Bruker Daltonik
Instrument type: LC-ESI-QTOF
Ms type: MS2
Ion mode: POSITIVE
Ionization: ESI
Collision energy: 50eV
Column name: Acquity CSHC18
Retention time: 6.296 min
Base peak: 203.0694
Precursor m/z: 203.0694
Precursor type: [M+H-H2O]+
Precursor intensity: 19168.19
m/z	relative intensity
27.1298	14
48.9864	9
74.0145	12
77.0382	33
89.0377	39
103.0538	74
104.0613	38
114.0463	17
115.0533	393
116.0596	27
127.0545	17
131.0485	104
132.0566	91
133.0613	15
139.0534	8
143.0481	184
144.0499	27
146.0333	21
157.0651	12
160.0498	158
161.0571	30
171.0436	140
188.0446	70
189.0511	31
203.049	27
203.0694	999
