Mass spectrum: Methyl jasmonate; LC-ESI-ITFT; MS2; CE: 40;  [M+H]+
Name: Methyl jasmonate
Class: Lipids and lipid-like molecules; Fatty Acyls; Lineolic acids and derivatives
Formula: C13H20O3
Exact mass: 224.14124
SMILES: CC\C=C/C[C@@H]1[C@@H](CC(=O)OC)CCC1=O
InChI: InChI=1S/C13H20O3/c1-3-4-5-6-11-10(7-8-12(11)14)9-13(15)16-2/h4-5,10-11H,3,6-9H2,1-2H3/b5-4-/t10-,11-/m1/s1
Instrument: Thermo Scientific Q-Exactive Focus
Instrument type: LC-ESI-ITFT
Ms type: MS2
Ion mode: POSITIVE
Ionization: ESI
Collision energy: 40
Column name: Acquity CSHC18
Retention time: 1.463 min
Base peak: 225.14851
Precursor m/z: 225.14851
Precursor type: [M+H]+
m/z	relative intensity
55.0548	313
67.0548	971
79.0547	787
81.0703	778
85.0652	143
91.0546	999
93.0703	204
95.0495	358
105.0702	890
109.0651	344
