Mass spectrum: Argophyllin B; LC-ESI-ITFT; MS2; CE: 50eV;  [M+H]+
Name: Argophyllin B
Class: Sesquiterpenelactone; Heliangolide
Formula: C20H28O7
Exact mass: 380.1835
SMILES: C/C=C(/C)\C(=O)O[C@@H]1C[C@@]2([C@H](O2)C[C@@H]([C@@H](C[C@@H]3[C@@H]1C(=C)C(=O)O3)CO)O)C
InChI: InChI=1S/C20H28O7/c1-5-10(2)18(23)26-15-8-20(4)16(27-20)7-13(22)12(9-21)6-14-17(15)11(3)19(24)25-14/h5,12-17,21-22H,3,6-9H2,1-2,4H3/b10-5-/t12-,13-,14+,15+,16+,17-,20+/m0/s1
Instrument: Q Exactive Plus, ThermoFisher Scientific
Instrument type: LC-ESI-ITFT
Ms type: MS2
Ion mode: POSITIVE
Ionization: ESI
Collision energy: 50eV
Column name: Acquity CSHC18
Retention time: 6.506 min
Base peak: 381.1901
Precursor m/z: 381.1901
Precursor type: [M+H]+
Precursor intensity: 1060304000
m/z	relative intensity
54.7274	24
55.0188	26
55.055	497
61.6247	25
67.0549	27
68.8314	132
68.8352	58
69.0345	141
79.0546	24
81.0704	27
83.05	999
91.054	51
93.0704	99
95.0499	40
97.4034	54
99.044	40
101.06	26
102.7735	23
105.0703	117
105.438	24
107.0856	36
111.0441	24
113.06	23
117.0699	92
119.085	51
121.0642	26
129.0702	88
131.0851	37
131.2219	24
133.0645	56
135.0801	35
143.0848	86
143.5453	22
145.0645	38
145.1009	50
147.0804	52
147.1177	29
149.0594	32
155.0857	47
157.1019	128
159.1157	34
161.0947	37
166.077	33
169.1017	94
171.0815	29
171.1178	158
173.0964	89
175.1118	54
181.1007	120
183.1146	25
185.0953	54
187.1131	47
189.0901	35
191.1061	51
197.0968	25
199.1122	244
201.0905	29
203.107	53
209.0978	25
215.1061	93
217.122	138
227.106	145
233.1178	46
235.1326	31
245.1175	161
263.1272	59
