Mass spectrum: Carnosine; ESI-TOF; MS2; CE: 6.0000000;  [M+H]+
Name: Carnosine
Class: NA
Formula: C9H14N4O3
Exact mass: 226.10659
SMILES: NCCC(=O)NC(CC1=CN=CN1)C(O)=O
InChI: InChI=1S/C9H14N4O3/c10-2-1-8(14)13-7(9(15)16)3-6-4-11-5-12-6/h4-5,7H,1-3,10H2,(H,11,12)(H,13,14)(H,15,16)
Instrument: waters xevo g2 TOF
Instrument type: ESI-TOF
Ms type: MS2
Ion mode: POSITIVE
Ionization: ESI
Collision energy: 6.0000000
Column name: Acquity CSHC18
Retention time: 0.473 min
Base peak: 227.11459
Precursor m/z: 227.11459
Precursor type: [M+H]+
m/z	relative intensity
83.061	2
93.0457	5
95.0607	4
110.0719	922
111.0745	63
113.9644	61
122.0717	4
136.051	30
138.0668	3
138.9904	8
138.9916	7
139.0512	9
141.9591	59
152.0822	168
153.0855	12
156.0772	999
156.0775	128
157.0805	84
158.0031	20
158.0037	13
158.004	19
164.0829	20
180.0757	3
180.0782	57
181.1088	94
182.0565	4
198.0878	98
204.1235	24
209.105	39
210.0879	284
211.0911	27
227.1138	755
228.1171	83
230.077	4
236.0367	18
236.9403	10
237.0424	4
453.2196	11
506.1319	6
507.1375	5
