Mass spectrum: Succinic GSH; LC-ESI-QTOF; MS2; CE: 60;  [M-H]-
Name: Succinic GSH
Class: NA
Formula: C14H21N3O10S
Exact mass: 423.09476
SMILES: C(CC(=O)NC(CSC(CC(=O)O)C(=O)O)C(=O)NCC(=O)O)C(C(=O)O)N
InChI: InChI=1S/C14H21N3O10S/c15-6(13(24)25)1-2-9(18)17-7(12(23)16-4-11(21)22)5-28-8(14(26)27)3-10(19)20/h6-8H,1-5,15H2,(H,16,23)(H,17,18)(H,19,20)(H,21,22)(H,24,25)(H,26,27)
Instrument: impact II
Instrument type: LC-ESI-QTOF
Ms type: MS2
Ion mode: NEGATIVE
Ionization: ESI
Collision energy: 60
Column name: Acquity CSHC18
Retention time: 1.790 min
Base peak: 422.08790
Precursor m/z: 422.08790
Precursor type: [M-H]-
m/z	relative intensity
71.0142	299
74.025	401
82.0302	125
86.0244	142
87.0565	480
97.0406	186
99.0561	677
101.0716	109
102.056	206
109.0408	440
111.0564	155
112.0402	209
113.0352	111
115.0034	827
123.0566	276
124.0412	193
125.0357	127
127.0511	521
128.0352	999
135.0567	211
141.067	287
143.0463	619
153.0659	136
