Mass spectrum: Uridine diphosphate glucuronic acid; LC-ESI-QTOF; MS2; CE: 30;  [M-H]-
Name: Uridine diphosphate glucuronic acid
Class: Gamma butyrolactones
Formula: C15H22N2O18P2
Exact mass: 580.03429
SMILES: O[C@@H]1[C@@H](COP(O)(=O)OP(O)(=O)O[C@H]2O[C@@H]([C@@H](O)[C@H](O)[C@H]2O)C(O)=O)O[C@H]([C@@H]1O)N1C=CC(=O)NC1=O
InChI: InChI=1S/C15H22N2O18P2/c18-5-1-2-17(15(26)16-5)12-9(22)6(19)4(32-12)3-31-36(27,28)35-37(29,30)34-14-10(23)7(20)8(21)11(33-14)13(24)25/h1-2,4,6-12,14,19-23H,3H2,(H,24,25)(H,27,28)(H,29,30)(H,16,18,26)/t4-,6-,7+,8+,9-,10-,11+,12-,14-/m1/s1
Instrument: impact II
Instrument type: LC-ESI-QTOF
Ms type: MS2
Ion mode: NEGATIVE
Ionization: ESI
Collision energy: 30
Column name: Acquity CSHC18
Retention time: 1.734 min
Base peak: 579.02720
Precursor m/z: 579.02720
Precursor type: [M-H]-
m/z	relative intensity
403.3367	999
