Mass spectrum: Isorhamnetin 3-O-glucoside; LC-ESI-QTOF; MS2; CE: 7-62eV;  [M-H]-
Name: Isorhamnetin 3-O-glucoside
Class: Phenolics
Formula: C22H22O12
Exact mass: 478.1111
SMILES: COC1=C(C=CC(=C1)C2=C(C(=O)C3=C(C=C(C=C3O2)O)O)OC4C(C(C(C(O4)CO)O)O)O)O
InChI: InChI=1S/C22H22O12/c1-31-12-4-8(2-3-10(12)25)20-21(17(28)15-11(26)5-9(24)6-13(15)32-20)34-22-19(30)18(29)16(27)14(7-23)33-22/h2-6,14,16,18-19,22-27,29-30H,7H2,1H3
Instrument: Bruker MicrOTOF-Q
Instrument type: LC-ESI-QTOF
Ms type: MS2
Ion mode: NEGATIVE
Ionization: ESI
Collision energy: 7-62eV
Column name: Acquity CSHC18
Retention time: 31.758 min
Base peak: 477.0968
Precursor m/z: 477.0968
Precursor type: [M-H]-
Precursor intensity: 17297.81
m/z	relative intensity
243.0262	181
271.0247	208
285.0417	323
314.0404	395
477.1107	999
