Mass spectrum: METHYL 4-AMINOBUTYRATE; LC-ESI-QFT; MS2; CE: 30eV;  [M+H]+
Name: METHYL 4-AMINOBUTYRATE
Class: NA
Formula: C5H11NO2
Exact mass: 117.07898
SMILES: COC(CCCN)=O
InChI: InChI=1S/C5H11NO2/c1-8-5(7)3-2-4-6/h2-4,6H2,1H3
Instrument: Q-Exactive Orbitrap, Thermo Scientfic; Ultimate 3000 HPLC, Thermo Scientfic
Instrument type: LC-ESI-QFT
Ms type: MS2
Ion mode: POSITIVE
Ionization: ESI
Collision energy: 30eV
Column name: Acquity CSHC18
Retention time: 0.717 min
Base peak: 118.0863
Precursor m/z: 118.0863
Precursor type: [M+H]+
Precursor intensity: 137
m/z	relative intensity
51.4037	10
52.9433	11
56.4628	11
57.6786	10
58.066	99
59.0135	71
59.0738	98
59.4042	8
60.0534	138
63.4796	11
66.2437	10
68.0503	60
69.0343	573
69.0475	11
72.9379	26
75.7293	10
77.0197	13
77.7393	10
86.0608	999
87.0643	15
88.4685	12
88.9814	12
89.5037	11
90.9484	13
91.0552	11
93.6337	13
99.0085	13
102.0637	656
102.0669	28
102.9382	12
107.4859	12
116.9723	16
117.9805	20
118.9678	17
119.0903	81
