Mass spectrum: 18:0-22:6 DG; ESI-TOF; MS2; CE: 6.0000000;  [M+H]+
Name: 18:0-22:6 DG
Class: NA
Formula: C43H72O5
Exact mass: 668.53798
SMILES: [H]OC([H])([H])C([H])(OC(=O)C([H])([H])C([H])([H])C([H])=C([H])C([H])([H])C([H])=C([H])C([H])([H])C([H])=C([H])C([H])([H])C([H])=C([H])C([H])([H])C([H])=C([H])C([H])([H])C([H])=C([H])C([H])([H])C([H])([H])[H])C([H])([H])OC(=O)C([H])([H])C([H])([H])C([H])([H])C([H])([H])C([H])([H])C([H])([H])C([H])([H])C([H])([H])C([H])([H])C([H])([H])C([H])([H])C([H])([H])C([H])([H])C([H])([H])C([H])([H])C([H])([H])C([H])([H])[H]
InChI: InChI=1S/C43H72O5/c1-3-5-7-9-11-13-15-17-19-20-21-22-24-26-28-30-32-34-36-38-43(46)48-41(39-44)40-47-42(45)37-35-33-31-29-27-25-23-18-16-14-12-10-8-6-4-2/h5,7,11,13,17,19,21-22,26,28,32,34,41,44H,3-4,6,8-10,12,14-16,18,20,23-25,27,29-31,33,35-40H2,1-2H3
Instrument: waters xevo g2 TOF
Instrument type: ESI-TOF
Ms type: MS2
Ion mode: POSITIVE
Ionization: ESI
Collision energy: 6.0000000
Column name: Acquity CSHC18
Retention time: 12.294 min
Base peak: 669.54598
Precursor m/z: 669.54598
Precursor type: [M+H]+
m/z	relative intensity
161.1317	1
175.1478	2
214.9185	28
221.1205	7
293.2259	12
294.2297	3
311.2373	119
312.2404	28
330.2499	26
330.7515	9
341.3058	999
342.3088	256
343.312	31
353.0656	43
353.5653	28
354.5395	78
355.7512	7
357.0654	3
361.0541	4
362.0537	6
367.1948	49
367.7198	10
381.2222	10
385.2743	90
386.2778	25
392.226	10
404.2133	5
429.0893	72
430.09	31
431.088	20
432.0842	5
476.4216	4
515.412	6
603.5327	12
617.5117	9
644.5323	24
645.5395	6
651.3418	498
652.5392	503
653.5425	133
654.5463	23
664.4583	76
665.0209	5
665.4595	19
667.1774	6
669.5467	860
670.5496	424
