Mass spectrum: Ornithine; ESI-TOF; MS2; CE: 0.6458333;  [M+H]+
Name: Ornithine
Class: NA
Formula: C5H12N2O2
Exact mass: 132.08988
SMILES: NCCCC(N)C(O)=O
InChI: InChI=1S/C5H12N2O2/c6-3-1-2-4(7)5(8)9/h4H,1-3,6-7H2,(H,8,9)
Instrument: waters xevo g2 TOF
Instrument type: ESI-TOF
Ms type: MS2
Ion mode: POSITIVE
Ionization: ESI
Collision energy: 0.6458333
Column name: Acquity CSHC18
Retention time: 0.474 min
Base peak: 133.09788
Precursor m/z: 133.09788
Precursor type: [M+H]+
m/z	relative intensity
70.0658	999
115.0867	88
116.0709	553
117.0736	2
124.9924	309
131.9304	88
133.0973	297
133.9276	21
134.1001	2
138.9897	7
139.9883	25
142.0194	2
147.114	2
149.9542	2
151.9505	2
153.9527	2
172.9768	2
174.9557	2
178.1218	2
181.9865	2
188.0237	2
191.0232	2
215.9956	2
217.0517	2
232.0142	2
239.0721	62
256.0987	104
259.1723	2
265.1881	2
283.0853	40
300.0876	2
302.1889	2
319.1055	18
321.1055	2
450.1869	2
582.2826	2
