Mass spectrum: 3-Sulfinoalanine; LC-ESI-ITFT; MS2; CE: 20;  [M+H]+
Name: 3-Sulfinoalanine
Class: Organic acids and derivatives; Carboxylic acids and derivatives; Amino acids, peptides, and analogues
Formula: C3H7NO4S
Exact mass: 153.00958
SMILES: C([C@@H](C(=O)O)N)S(=O)=O
InChI: InChI=1S/C3H7NO4S/c4-2(3(5)6)1-9(7)8/h2,9H,1,4H2,(H,5,6)/t2-/m0/s1
Instrument: Thermo Scientific Q-Exactive Focus
Instrument type: LC-ESI-ITFT
Ms type: MS2
Ion mode: POSITIVE
Ionization: ESI
Collision energy: 20
Column name: Acquity CSHC18
Retention time: 0.630 min
Base peak: 154.01685
Precursor m/z: 154.01685
Precursor type: [M+H]+
m/z	relative intensity
55.0184	30
70.0292	40
71.037	53
73.0288	219
74.0241	999
85.1344	6
88.0396	46
89.0474	103
92.5239	14
137.9164	6
