Mass spectrum: Sinapaldehyde; LC-ESI-QTOF; MS2; CE: 50eV;  [M-H]-
Name: Sinapaldehyde
Class: Phenylpropanoid
Formula: C11H12O4
Exact mass: 208.0736
SMILES: COC1=CC(=CC(=C1O)OC)C=CC=O
InChI: InChI=1S/C11H12O4/c1-14-9-6-8(4-3-5-12)7-10(15-2)11(9)13/h3-7,13H,1-2H3
Instrument: TIMS-TOF Pro, Bruker Daltonik; Elute UHPLC System, Bruker Daltonik
Instrument type: LC-ESI-QTOF
Ms type: MS2
Ion mode: NEGATIVE
Ionization: ESI
Collision energy: 50eV
Column name: Acquity CSHC18
Retention time: 5.880 min
Base peak: 207.0637
Precursor m/z: 207.0637
Precursor type: [M-H]-
Precursor intensity: 3608.56
m/z	relative intensity
28.0065	54
35.9763	40
41.0025	131
65.0016	126
66.0059	35
77.0373	58
79.0192	19
91.5644	25
93.0322	182
94.0356	20
121.0254	45
177.0166	999
178.0165	57
192.0385	299
193.0428	103
