Mass spectrum: (2-AMINOETHYL)PHOSPHONATE; LC-ESI-QTOF; MS2; CE: 10;  [M+H]+
Name: (2-AMINOETHYL)PHOSPHONATE
Class: NA
Formula: C2H8NO3P
Exact mass: 125.0242
SMILES: NCCP(O)(O)=O
InChI: InChI=1S/C2H8NO3P/c3-1-2-7(4,5)6/h1-3H2,(H2,4,5,6)
Instrument: Agilent 6530Â Q-TOF LC/MS
Instrument type: LC-ESI-QTOF
Ms type: MS2
Ion mode: POSITIVE
Ionization: ESI
Collision energy: 10
Column name: NA
Retention time: 0.200 min
Base peak: 126.03140
Precursor m/z: 126.03140
Precursor type: [M+H]+
Precursor intensity: 174.5
m/z	relative intensity
40.9688	53
64.9768	60
78.9921	83
79.9871	170
80.9721	175
84.958	211
90.9925	304
97.0008	453
109.0022	675
126.0282	999
