Mass spectrum: 4-QUINOLINECARBOXYLATE; LC-ESI-QTOF; MS2; CE: 40;  [M+H]+
Name: 4-QUINOLINECARBOXYLATE
Class: NA
Formula: C10H7NO2
Exact mass: 173.04768
SMILES: C1=CC=C2C(=C1)C(=CC=N2)C(=O)O
InChI: InChI=1S/C10H7NO2/c12-10(13)8-5-6-11-9-4-2-1-3-7(8)9/h1-6H,(H,12,13)
Instrument: Agilent 6530Â Q-TOF LC/MS
Instrument type: LC-ESI-QTOF
Ms type: MS2
Ion mode: POSITIVE
Ionization: ESI
Collision energy: 40
Column name: NA
Retention time: 0.200 min
Base peak: 174.05538
Precursor m/z: 174.05538
Precursor type: [M+H]+
Precursor intensity: 95.5
m/z	relative intensity
41.0516	14
43.0321	15
45.0169	15
50.0369	15
51.3041	15
51.7746	15
52.0278	16
52.7753	16
53.0358	16
61.009	16
62.0249	16
63.0423	16
64.0313	17
65.08	17
65.22	17
65.3577	18
66.0511	19
70.0263	19
74.043	19
75.1742	20
75.5485	20
76.0744	21
77.7646	21
80.0192	22
86.0143	23
87.0218	24
89.0679	28
89.3521	31
90.0768	38
90.3435	50
91.4529	50
92.0648	56
92.1996	61
93.0711	65
94.0801	80
102.8448	88
104.9324	90
105.0616	98
105.2026	100
105.4467	129
116.0648	137
117.1902	185
117.5265	197
117.7721	225
118.1128	231
118.3101	254
118.4229	317
118.7762	346
120.0563	408
126.0316	424
127.0567	434
129.7189	441
131.6332	454
132.0401	471
144.0466	472
145.056	601
146.4617	982
147.1759	999
174.0781	14
