Mass spectrum: Brucine; LC-ESI-QTOF; MS2; CE: 22.14;  [M+H]+
Name: Brucine
Class: NA
Formula: C23H26N2O4
Exact mass: 394.1893
SMILES: COC1=C(C=C2C(=C1)C34CCN5C3CC6C7C4N2C(=O)CC7OCC=C6C5)OC
InChI: InChI=1S/C23H26N2O4/c1-27-16-8-14-15(9-17(16)28-2)25-20(26)10-18-21-13-7-19-23(14,22(21)25)4-5-24(19)11-12(13)3-6-29-18/h3,8-9,13,18-19,21-22H,4-7,10-11H2,1-2H3
Instrument: Bruker MicrOTOF-Q
Instrument type: LC-ESI-QTOF
Ms type: MS2
Ion mode: POSITIVE
Ionization: ESI
Collision energy: 22.14
Column name: Acquity CSHC18
Retention time: NA
Base peak: 395.1965
Precursor m/z: 395.1965
Precursor type: [M+H]+
m/z	relative intensity
244.0959	34
282.1117	41
324.1222	48
325.1252	52
350.1376	61
367.1639	124
368.1661	180
395.2035	203
396.199	827
397.2004	999
