Mass spectrum: Kaempferol-3-O-glucoside; LC-ESI-QTOF; MS2; CE: 50eV;  [M-H]-
Name: Kaempferol-3-O-glucoside
Class: Flavonol
Formula: C21H20O11
Exact mass: 448.1006
SMILES: C1=CC(=CC=C1C2=C(C(=O)C3=C(C=C(C=C3O2)O)O)OC4C(C(C(C(O4)CO)O)O)O)O
InChI: InChI=1S/C21H20O11/c22-7-13-15(26)17(28)18(29)21(31-13)32-20-16(27)14-11(25)5-10(24)6-12(14)30-19(20)8-1-3-9(23)4-2-8/h1-6,13,15,17-18,21-26,28-29H,7H2
Instrument: TIMS-TOF Pro, Bruker Daltonik; Elute UHPLC System, Bruker Daltonik
Instrument type: LC-ESI-QTOF
Ms type: MS2
Ion mode: NEGATIVE
Ionization: ESI
Collision energy: 50eV
Column name: Acquity CSHC18
Retention time: 5.516 min
Base peak: 447.0869
Precursor m/z: 447.0869
Precursor type: [M-H]-
Precursor intensity: 9845.22
m/z	relative intensity
93.0322	14
109.028	16
125.0213	6
137.0348	6
147.0052	8
163.9542	7
172.0549	5
185.0179	6
185.0629	7
218.0532	6
220.7648	5
224.0544	9
226.0128	9
227.0309	50
228.0345	14
229.0452	5
230.5941	11
239.836	6
255.0253	29
256.0158	9
277.2891	11
284.0273	182
285.0353	138
286.0371	19
307.688	7
446.697	6
446.9036	10
447.0836	999
447.5305	8
