Mass spectrum: HOMOGENTISATE; LC-ESI-QTOF; MS2; CE: 10;  [M-H]-
Name: HOMOGENTISATE
Class: NA
Formula: C8H8O4
Exact mass: 168.04226
SMILES: OC(=O)CC1=C(O)C=CC(O)=C1
InChI: InChI=1S/C8H8O4/c9-6-1-2-7(10)5(3-6)4-8(11)12/h1-3,9-10H,4H2,(H,11,12)
Instrument: Agilent 6530Â Q-TOF LC/MS
Instrument type: LC-ESI-QTOF
Ms type: MS2
Ion mode: NEGATIVE
Ionization: ESI
Collision energy: 10
Column name: NA
Retention time: 0.200 min
Base peak: 167.03591
Precursor m/z: 167.03591
Precursor type: [M-H]-
Precursor intensity: 140
m/z	relative intensity
108.0325	395
122.0653	941
123.0715	999
