Mass spectrum: 3-METHYL-2-OXINDOLE; LC-ESI-QTOF; MS2; CE: 10;  [M+H]+
Name: 3-METHYL-2-OXINDOLE
Class: NA
Formula: C9H9NO
Exact mass: 147.06841
SMILES: CC1C2=CC=CC=C2NC1=O
InChI: InChI=1S/C9H9NO/c1-6-7-4-2-3-5-8(7)10-9(6)11/h2-6H,1H3,(H,10,11)
Instrument: Agilent 6530Â Q-TOF LC/MS
Instrument type: LC-ESI-QTOF
Ms type: MS2
Ion mode: POSITIVE
Ionization: ESI
Collision energy: 10
Column name: NA
Retention time: 0.200 min
Base peak: 148.07327
Precursor m/z: 148.07327
Precursor type: [M+H]+
Precursor intensity: 32.5
m/z	relative intensity
42.058	19
43.0205	20
51.0264	20
52.5337	20
55.0152	20
77.0668	20
78.056	20
79.0669	21
80.0458	21
91.0634	21
93.0788	22
94.0683	23
103.1245	23
103.6937	25
104.0734	25
105.0863	26
105.3813	31
106.0471	34
106.9698	34
118.0794	36
119.056	36
120.1887	38
120.629	39
121.075	40
130.1108	40
130.2962	44
130.66	57
131.073	61
132.0426	92
133.2486	93
133.5815	101
133.6776	118
134.0588	181
146.0647	416
147.0812	433
147.9791	443
148.7334	551
149.5694	643
149.6991	652
150.0675	671
150.3081	999
