Mass spectrum: Palustric acid; LC-ESI-QTOF; MS2; CE: 15.09;  [M-H]-
Name: Palustric acid
Class: NA
Formula: C20H30O2
Exact mass: 302.2246
SMILES: CC(C)C1=CC2=C(CC1)C3(CCCC(C3CC2)(C)C(=O)O)C
InChI: InChI=1S/C20H30O2/c1-13(2)14-6-8-16-15(12-14)7-9-17-19(16,3)10-5-11-20(17,4)18(21)22/h12-13,17H,5-11H2,1-4H3,(H,21,22)
Instrument: Bruker MicrOTOF-Q
Instrument type: LC-ESI-QTOF
Ms type: MS2
Ion mode: NEGATIVE
Ionization: ESI
Collision energy: 15.09
Column name: Acquity CSHC18
Retention time: NA
Base peak: 301.2173
Precursor m/z: 301.2173
Precursor type: [M-H]-
m/z	relative intensity
300.1989	2
300.5775	1
301.2174	999
301.5908	1
302.2208	199
