Mass spectrum: 3-METHYL-2-OXOVALERATE; LC-ESI-QTOF; MS2; CE: 10;  [M-H]-
Name: 3-METHYL-2-OXOVALERATE
Class: NA
Formula: C6H10O3
Exact mass: 130.06299
SMILES: CCC(C)C(=O)C(O)=O
InChI: InChI=1S/C6H10O3/c1-3-4(2)5(7)6(8)9/h4H,3H2,1-2H3,(H,8,9)
Instrument: Agilent 6530Â Q-TOF LC/MS
Instrument type: LC-ESI-QTOF
Ms type: MS2
Ion mode: NEGATIVE
Ionization: ESI
Collision energy: 10
Column name: NA
Retention time: 0.200 min
Base peak: 129.05365
Precursor m/z: 129.05365
Precursor type: [M-H]-
Precursor intensity: 190
m/z	relative intensity
41.0406	490
128.0332	916
129.0637	999
