Mass spectrum: 1,2-dioleoyl-sn-glycero-3-phosphoethanolamine; ESI-TOF; MS2; CE: 0.6458333;  [M+H]+
Name: 1,2-dioleoyl-sn-glycero-3-phosphoethanolamine
Class: NA
Formula: C41H78NO8P
Exact mass: 743.54651
SMILES: [H]C(=C([H])C([H])([H])C([H])([H])C([H])([H])C([H])([H])C([H])([H])C([H])([H])C([H])([H])C([H])([H])[H])C([H])([H])C([H])([H])C([H])([H])C([H])([H])C([H])([H])C([H])([H])C([H])([H])C(=O)OC([H])([H])C([H])(OC(=O)C([H])([H])C([H])([H])C([H])([H])C([H])([H])C([H])([H])C([H])([H])C([H])([H])C([H])=C([H])C([H])([H])C([H])([H])C([H])([H])C([H])([H])C([H])([H])C([H])([H])C([H])([H])C([H])([H])[H])C([H])([H])OP(=O)([O-])OC([H])([H])C([H])([H])[N+]([H])([H])[H]
InChI: InChI=1S/C41H78NO8P/c1-3-5-7-9-11-13-15-17-19-21-23-25-27-29-31-33-40(43)47-37-39(38-49-51(45,46)48-36-35-42)50-41(44)34-32-30-28-26-24-22-20-18-16-14-12-10-8-6-4-2/h17-20,39H,3-16,21-38,42H2,1-2H3,(H,45,46)
Instrument: waters xevo g2 TOF
Instrument type: ESI-TOF
Ms type: MS2
Ion mode: POSITIVE
Ionization: ESI
Collision energy: 0.6458333
Column name: Acquity CSHC18
Retention time: 11.348 min
Base peak: 744.55451
Precursor m/z: 744.55451
Precursor type: [M+H]+
m/z	relative intensity
81.0711	2
83.0862	2
95.086	3
104.6045	2
109.1127	2
135.1174	3
161.9624	1
164.0092	3
192.9577	2
247.2435	2
265.2526	20
266.2564	3
308.2946	8
339.2899	10
457.203	19
458.2051	5
462.2964	2
480.3077	3
537.3951	3
603.5353	999
604.539	442
605.5413	103
606.5437	15
607.5456	1
682.4272	4
682.9306	3
683.4322	1
709.515	2
723.4922	3
739.4584	5
740.4616	2
744.5539	204
745.5575	92
