Mass spectrum: desacetyl-ovatifolin,9ß-hydroxy-8ß-ageloyloxy; LC-ESI-ITFT; MS2; CE: 50eV;  [M+H]+
Name: desacetyl-ovatifolin,9ß-hydroxy-8ß-ageloyloxy
Class: Sesquiterpenelactone; Germacrolide
Formula: C20H26O6
Exact mass: 362.1729
SMILES: C\C=C(\C)C(=O)O[C@@H]1[C@H](O)C(=CCCC(C)=C[C@H]2OC(=O)C(=C)[C@H]12)CO
InChI: InChI=1S/C20H26O6/c1-5-12(3)19(23)26-18-16-13(4)20(24)25-15(16)9-11(2)7-6-8-14(10-21)17(18)22/h5,8-9,15-18,21-22H,4,6-7,10H2,1-3H3/b11-9?,12-5-,14-8?/t15-,16+,17-,18+/m1/s1
Instrument: Q Exactive Plus, ThermoFisher Scientific
Instrument type: LC-ESI-ITFT
Ms type: MS2
Ion mode: POSITIVE
Ionization: ESI
Collision energy: 50eV
Column name: Acquity CSHC18
Retention time: 6.243 min
Base peak: 363.1807
Precursor m/z: 363.1807
Precursor type: [M+H]+
Precursor intensity: 34273830
m/z	relative intensity
55.0549	93
55.169	13
62.6631	15
68.9571	98
70.0835	14
81.0706	18
83.0495	999
95.049	21
109.0652	18
119.0857	18
121.0649	17
129.0694	37
131.0857	16
133.3392	17
145.1013	21
147.0808	77
149.0959	193
169.1017	37
171.1175	68
175.0743	75
181.1004	69
185.0949	17
189.1267	16
190.598	17
193.088	18
199.1113	110
201.0898	19
201.1277	19
203.1062	35
215.106	108
217.1207	119
227.1074	215
233.1162	21
243.1044	15
245.1156	419
252.051	16
263.1289	203
324.5575	19
327.1572	64
345.1718	126
363.181	955
363.6214	18
