Mass spectrum: INOSINE-MONOPHOSPHATE; LC-ESI-QTOF; MS2; CE: 20;  [M+H]+
Name: INOSINE-MONOPHOSPHATE
Class: NA
Formula: C10H13N4O8P
Exact mass: 348.04710
SMILES: O[C@@H]1[C@@H](COP(O)(O)=O)O[C@H]([C@@H]1O)N1C=NC2=C1N=CNC2=O
InChI: InChI=1S/C10H13N4O8P/c15-6-4(1-21-23(18,19)20)22-10(7(6)16)14-3-13-5-8(14)11-2-12-9(5)17/h2-4,6-7,10,15-16H,1H2,(H,11,12,17)(H2,18,19,20)/t4-,6-,7-,10-/m1/s1
Instrument: Agilent 6530Â Q-TOF LC/MS
Instrument type: LC-ESI-QTOF
Ms type: MS2
Ion mode: POSITIVE
Ionization: ESI
Collision energy: 20
Column name: NA
Retention time: 0.200 min
Base peak: 349.05464
Precursor m/z: 349.05464
Precursor type: [M+H]+
Precursor intensity: 90.5
m/z	relative intensity
41.0339	22
41.0376	22
41.0412	18
67.0221	21
67.0268	20
67.0315	19
97.0141	55
97.0198	101
97.0254	106
97.0311	90
97.0367	72
97.0424	53
97.048	38
97.0537	29
97.0593	23
110.0225	22
110.0286	21
137.0209	112
137.0276	479
137.0343	881
137.041	999
137.0478	881
137.0545	710
137.0612	553
137.0679	422
137.0746	324
137.0813	248
137.088	181
137.0947	129
137.1014	96
137.1081	71
137.1148	57
137.1216	48
137.1283	34
137.135	28
137.1417	22
