Mass spectrum: DEOXYURIDINE-MONOPHOSPHATE; LC-ESI-QFT; MS2; CE: 30eV;  [M-H]-
Name: DEOXYURIDINE-MONOPHOSPHATE
Class: NA
Formula: C9H13N2O8P
Exact mass: 308.04095
SMILES: C1C(C(OC1N2C=CC(=O)NC2=O)COP(=O)(O)O)O
InChI: InChI=1S/C9H13N2O8P/c12-5-3-8(11-2-1-7(13)10-9(11)14)19-6(5)4-18-20(15,16)17/h1-2,5-6,8,12H,3-4H2,(H,10,13,14)(H2,15,16,17)
Instrument: Q-Exactive Orbitrap, Thermo Scientfic; Ultimate 3000 HPLC, Thermo Scientfic
Instrument type: LC-ESI-QFT
Ms type: MS2
Ion mode: NEGATIVE
Ionization: ESI
Collision energy: 30eV
Column name: Acquity CSHC18
Retention time: 0.664 min
Base peak: 307.0337
Precursor m/z: 307.0337
Precursor type: [M-H]-
Precursor intensity: 103
m/z	relative intensity
51.9166	2
56.8203	2
57.3967	2
61.0731	2
61.9203	2
67.3717	2
72.7745	2
78.1308	2
78.7476	2
78.9575	999
79.5139	2
80.1504	2
87.9235	2
88.9316	3
96.968	329
101.9393	57
106.9421	5
111.0184	885
112.0218	26
115.2791	2
117.9343	10
129.8789	2
131.6756	2
132.7818	2
145.8744	4
145.9294	87
145.9406	3
148.5431	2
149.8227	2
150.9786	24
161.8695	5
172.8822	11
173.3242	2
173.8696	82
176.9947	297
177.9979	6
189.8647	45
191.8804	56
195.0054	963
196.0087	29
207.8762	5
216.8258	2
216.8723	3
217.8599	141
220.1474	2
235.8707	65
264.0273	6
269.1967	2
288.8954	5
307.0336	130
308.038	3
