Mass spectrum: Epigallocatechin gallate; LC-ESI-ITFT; MS2; CE: 45eV;  [M+H]+
Name: Epigallocatechin gallate
Class: flavonoid
Formula: C22H18O11
Exact mass: 458.0849
SMILES: C1C(C(OC2=CC(=CC(=C21)O)O)C3=CC(=C(C(=C3)O)O)O)OC(=O)C4=CC(=C(C(=C4)O)O)O
InChI: InChI=1S/C22H18O11/c23-10-5-12(24)11-7-18(33-22(31)9-3-15(27)20(30)16(28)4-9)21(32-17(11)6-10)8-1-13(25)19(29)14(26)2-8/h1-6,18,21,23-30H,7H2
Instrument: LTQ Orbitrap XL, Thermo Scientfic; Dionex Ultimate 300
Instrument type: LC-ESI-ITFT
Ms type: MS2
Ion mode: POSITIVE
Ionization: ESI
Collision energy: 45eV
Column name: Alltima C18
Retention time: 13.6 min
Base peak: 459.0902
Precursor m/z: 459.0902
Precursor type: [M+H]+
m/z	relative intensity
138.8819	999
194.8749	2
229.02	3
261.0347	3
287.4446	5
303.2751	4
332.3635	14
375.5024	2
