Mass spectrum: N-Oleoylethanolamine; LC-ESI-ITFT; MS2; CE: 10;  [M+H]+
Name: N-Oleoylethanolamine
Class: Organic nitrogen compounds; Organonitrogen compounds; Amines
Formula: C20H39NO2
Exact mass: 325.29808
SMILES: CCCCCCCC\C=C/CCCCCCCC(=O)NCCO
InChI: InChI=1S/C20H39NO2/c1-2-3-4-5-6-7-8-9-10-11-12-13-14-15-16-17-20(23)21-18-19-22/h9-10,22H,2-8,11-19H2,1H3,(H,21,23)/b10-9-
Instrument: Thermo Scientific Q-Exactive Focus
Instrument type: LC-ESI-ITFT
Ms type: MS2
Ion mode: POSITIVE
Ionization: ESI
Collision energy: 10
Column name: Acquity CSHC18
Retention time: 0.348 min
Base peak: 326.30536
Precursor m/z: 326.30536
Precursor type: [M+H]+
m/z	relative intensity
62.0606	497
62.0622	1
81.0703	2
121.1012	2
135.1168	1
247.2417	3
265.2521	8
308.2944	15
309.2784	57
326.3053	999
