Mass spectrum: Nicotianoside II; LC-ESI-QTOF; MS2; CE: 17.6eV;  [M+NH4]+
Name: Nicotianoside II
Class: Diterpene
Formula: C44H68O22
Exact mass: 948.4202
SMILES: C[C@H]1[C@@H]([C@H]([C@H]([C@@H](O1)O[C@@H]2[C@H](O[C@H]([C@@H]([C@H]2O)O)O[C@@](C)(CC/C=C(\C)/CC/C=C(\C)/CC/C=C(/C)\CO[C@H]3[C@@H]([C@H]([C@@H]([C@H](O3)COC(=O)CC(=O)O)O)O)O)C=C)COC(=O)CC(=O)O)O)O)O
InChI: InChI=1S/C44H68O22/c1-7-44(6,66-43-39(58)36(55)40(27(64-43)21-60-31(50)18-29(47)48)65-42-38(57)34(53)32(51)25(5)62-42)16-10-15-23(3)12-8-11-22(2)13-9-14-24(4)19-61-41-37(56)35(54)33(52)26(63-41)20-59-30(49)17-28(45)46/h7,11,14-15,25-27,32-43,51-58H,1,8-10,12-13,16-21H2,2-6H3,(H,45,46)(H,47,48)/b22-11+,23-15+,24-14-/t25-,26+,27+,32-,33+,34+,35-,36+,37+,38+,39+,40+,41+,42-,43-,44+/m0/s1
Instrument: Impact II qTOF
Instrument type: LC-ESI-QTOF
Ms type: MS2
Ion mode: POSITIVE
Ionization: ESI
Collision energy: 17.6eV
Column name: Acquity CSH C18 column (particle size 1.7 μm, column length 2.1 × 50 mm) (Waters)
Retention time: 22.4 min
Base peak: 966.4523
Precursor m/z: 966.4523
Precursor type: [M+NH4]+
m/z	relative intensity
163.148	5
189.1641	5
201.1647	5
203.1796	5
213.0393	7
215.1792	12
231.05	17
249.0603	28
271.2424	208
272.2457	40
273.2562	6
289.2531	12
359.098	29
377.1078	16
395.1188	94
396.1227	13
399.2896	9
413.1289	16
417.3006	62
418.3041	16
430.1567	9
461.0923	6
479.1049	16
497.1143	28
519.2953	13
537.3059	23
538.3089	6
554.3332	31
555.3357	11
607.1512	10
625.1603	13
643.1715	23
644.1772	5
647.3434	6
661.1815	6
665.3522	10
683.3643	16
684.3662	6
966.4523	999
