Mass spectrum: Cer(d18:0/16:0); LC-ESI-ITFT; MS2; CE: 100;  [M+H]+
Name: Cer(d18:0/16:0)
Class: Lipids and lipid-like molecules; Sphingolipids; Ceramides
Formula: C34H69NO3
Exact mass: 539.52775
SMILES: CCCCCCCCCCCCCCC[C@@H](O)[C@H](CO)NC(=O)CCCCCCCCCCCCCCC
InChI: InChI=1S/C34H69NO3/c1-3-5-7-9-11-13-15-17-19-21-23-25-27-29-33(37)32(31-36)35-34(38)30-28-26-24-22-20-18-16-14-12-10-8-6-4-2/h32-33,36-37H,3-31H2,1-2H3,(H,35,38)/t32-,33+/m0/s1
Instrument: Thermo Scientific Q-Exactive Focus
Instrument type: LC-ESI-ITFT
Ms type: MS2
Ion mode: POSITIVE
Ionization: ESI
Collision energy: 100
Column name: Acquity CSHC18
Retention time: 2.570 min
Base peak: 540.53503
Precursor m/z: 540.53503
Precursor type: [M+H]+
m/z	relative intensity
55.0548	941
56.05	160
57.0704	523
60.0449	800
67.0547	999
69.0703	236
70.0656	468
79.0546	282
81.0702	464
95.0858	195
