Mass spectrum: Adenosine triphosphate; LC-ESI-QTOF; MS2; CE: -10, -35, -60V;  [M-H]-
Name: Adenosine triphosphate
Class: NA
Formula: C10H16N5O13P3
Exact mass: 506.9957
SMILES: C1=NC(=C2C(=N1)N(C=N2)C3C(C(C(O3)COP(=O)(O)OP(=O)(O)OP(=O)(O)O)O)O)N
InChI: InChI=1S/C10H16N5O13P3/c11-8-5-9(13-2-12-8)15(3-14-5)10-7(17)6(16)4(26-10)1-25-30(21,22)28-31(23,24)27-29(18,19)20/h2-4,6-7,10,16-17H,1H2,(H,21,22)(H,23,24)(H2,11,12,13)(H2,18,19,20)
Instrument: TripleToF 5600; Sciex
Instrument type: LC-ESI-QTOF
Ms type: MS2
Ion mode: NEGATIVE
Ionization: ESI
Collision energy: -10, -35, -60V
Column name: Acquity CSHC18
Retention time: 15.415 min
Base peak: 505.9891
Precursor m/z: 505.9891
Precursor type: [M-H]-
Precursor intensity: 122313.6
m/z	relative intensity
78.9593	312
134.0456	53
158.9261	999
174.9842	25
176.9355	90
238.8804	15
238.8913	52
272.942	7
272.9584	123
328.0426	27
408.0114	281
426.0194	79
487.9737	35
505.9903	363
