Mass spectrum: Homocysteine; LC-ESI-ITFT; MS2; CE: 20;  [M+H]+
Name: Homocysteine
Class: Organic acids and derivatives; Carboxylic acids and derivatives; Amino acids, peptides, and analogues
Formula: C4H9NO2S
Exact mass: 135.03540
SMILES: NC(CCS)C(O)=O
InChI: InChI=1S/C4H9NO2S/c5-3(1-2-8)4(6)7/h3,8H,1-2,5H2,(H,6,7)
Instrument: Thermo Scientific Q-Exactive Focus
Instrument type: LC-ESI-ITFT
Ms type: MS2
Ion mode: POSITIVE
Ionization: ESI
Collision energy: 20
Column name: Acquity CSHC18
Retention time: 0.631 min
Base peak: 136.04268
Precursor m/z: 136.04268
Precursor type: [M+H]+
m/z	relative intensity
56.0501	999
71.0296	10
71.53	14
72.0284	48
73.0111	154
74.0242	11
81.0336	39
90.0376	426
121.0888	17
136.1122	18
