Mass spectrum: DIHYDROBIOPTERIN; LC-ESI-QTOF; MS2; CE: 40;  [M+H]+
Name: DIHYDROBIOPTERIN
Class: NA
Formula: C9H13N5O3
Exact mass: 239.10184
SMILES: C[C@H](O)[C@H](O)C1=NC2=C(NC1)NC(N)=NC2=O
InChI: InChI=1S/C9H13N5O3/c1-3(15)6(16)4-2-11-7-5(12-4)8(17)14-9(10)13-7/h3,6,15-16H,2H2,1H3,(H4,10,11,13,14,17)/t3-,6-/m0/s1
Instrument: Agilent 6530Â Q-TOF LC/MS
Instrument type: LC-ESI-QTOF
Ms type: MS2
Ion mode: POSITIVE
Ionization: ESI
Collision energy: 40
Column name: NA
Retention time: 0.200 min
Base peak: 240.10653
Precursor m/z: 240.10653
Precursor type: [M+H]+
Precursor intensity: 56.5
m/z	relative intensity
42.0426	109
43.0369	112
44.0485	118
45.0411	120
54.0457	121
55.0361	122
56.0521	122
57.046	125
60.0541	127
65.0181	131
66.0341	142
67.0392	146
68.0424	151
69.0292	152
70.0352	160
71.0509	161
79.0363	161
80.0406	173
81.0616	173
82.0528	176
83.063	177
84.0505	180
85.0491	185
86.0483	188
93.043	192
94.0518	194
95.0605	208
96.069	211
97.0545	217
98.0706	217
99.0464	219
105.0289	223
106.0504	225
107.0443	230
108.0636	231
109.0608	238
110.0506	250
111.0509	252
112.0678	254
113.0528	254
118.0395	257
119.0472	264
120.0655	279
121.0567	285
122.055	308
123.0479	319
124.0672	337
125.0394	340
126.0669	344
127.0598	345
133.0529	346
134.0597	346
135.0569	363
136.0578	370
137.0557	385
139.0658	391
140.0622	410
147.0475	417
148.0639	433
149.0593	438
150.0721	443
151.0602	482
152.0762	489
157.0638	496
160.0442	515
161.0463	521
162.0625	534
163.0673	547
164.0678	585
165.0824	617
166.0891	618
168.0781	635
178.0864	661
179.0935	674
192.0675	725
194.0663	788
195.0616	999
