Mass spectrum: N-ACETYLPUTRESCINE; LC-ESI-QFT; MS2; CE: 30eV;  [M+H]+
Name: N-ACETYLPUTRESCINE
Class: NA
Formula: C6H14N2O
Exact mass: 130.11061
SMILES: CC(=O)NCCCCN
InChI: InChI=1S/C6H14N2O/c1-6(9)8-5-3-2-4-7/h2-5,7H2,1H3,(H,8,9)
Instrument: Q-Exactive Orbitrap, Thermo Scientfic; Ultimate 3000 HPLC, Thermo Scientfic
Instrument type: LC-ESI-QFT
Ms type: MS2
Ion mode: POSITIVE
Ionization: ESI
Collision energy: 30eV
Column name: Acquity CSHC18
Retention time: 0.607 min
Base peak: 131.1179
Precursor m/z: 131.1179
Precursor type: [M+H]+
Precursor intensity: 102
m/z	relative intensity
52.9577	13
55.055	175
60.0452	449
60.0466	27
61.5795	11
71.9301	94
72.9378	29
73.0487	49
73.0786	18
73.0849	265
88.0763	78
89.108	16
89.9406	194
92.1431	15
107.951	78
114.0213	14
115.0888	51
115.0952	999
130.123	200
130.9671	29
132.1216	229
136.2889	15
140.467	15
148.9774	32
