Mass spectrum: Pseudoginsenoside F11; LC-ESI-QFT; MS2; CE: 15,30,45 (NCE);  [M-H]-
Name: Pseudoginsenoside F11
Class: NA
Formula: C42H72O14
Exact mass: 800.4922
SMILES: CC1OC(OC2C(O)C(O)C(CO)OC2OC2CC3(C)C(CC(O)C4C(CCC34C)C3(C)CCC(O3)C(C)(C)O)C3(C)CCC(O)C(C)(C)C23)C(O)C(O)C1O
InChI: InChI=1S/C42H72O14/c1-19-28(46)30(48)32(50)35(52-19)55-33-31(49)29(47)23(18-43)54-36(33)53-22-17-41(8)24(39(6)13-11-25(45)37(2,3)34(22)39)16-21(44)27-20(10-14-40(27,41)7)42(9)15-12-26(56-42)38(4,5)51/h19-36,43-51H,10-18H2,1-9H3
Instrument: QE Focus, Thermo Scientfic; UPLC I-Class, Waters
Instrument type: LC-ESI-QFT
Ms type: MS2
Ion mode: NEGATIVE
Ionization: ESI
Collision energy: 15,30,45 (NCE)
Column name: Acquity CSHC18
Retention time: 2.623 min
Base peak: 799.4789
Precursor m/z: 799.4789
Precursor type: [M-H]-
Precursor intensity: 1530740
m/z	relative intensity
85.0278	999
165.282	680
