Mass spectrum: D-Arginine; ESI-TOF; MS2; CE: 6.0000000;  [M+H]+
Name: D-Arginine
Class: NA
Formula: C6H14N4O2
Exact mass: 174.11168
SMILES: NC(CCCNC(N)=N)C(O)=O
InChI: InChI=1S/C6H14N4O2/c7-4(5(11)12)2-1-3-10-6(8)9/h4H,1-3,7H2,(H,11,12)(H4,8,9,10)
Instrument: waters xevo g2 TOF
Instrument type: ESI-TOF
Ms type: MS2
Ion mode: POSITIVE
Ionization: ESI
Collision energy: 6.0000000
Column name: Acquity CSHC18
Retention time: 0.480 min
Base peak: 175.11968
Precursor m/z: 175.11968
Precursor type: [M+H]+
m/z	relative intensity
70.066	56
88.0767	1
95.9733	3
96.9616	147
112.0874	45
113.073	6
114.1038	40
114.9711	18
115.0873	28
116.0711	669
117.0744	44
130.098	659
131.1008	42
133.0972	18
138.967	1
140.0832	11
145.0177	17
157.1089	177
158.0931	999
159.0868	85
162.9906	10
163.9373	2
175.1194	536
176.1218	727
177.1239	68
179.0911	5
182.0259	8
184.0399	25
185.0502	8
189.1338	3
197.1014	8
208.0095	1
213.0673	4
229.0386	21
249.8915	1
261.1547	16
328.9621	1
342.116	1
349.2309	34
358.156	3
401.1522	2
402.1442	32
403.1492	56
404.1524	7
405.1513	11
407.15	3
523.3552	2
576.2449	8
