Mass spectrum: skimmiamine; LC-ESI-ITFT; MS2; CE: 0.3;  [M+H]+
Name: skimmiamine
Class: alkaloids
Formula: C14H13NO4
Exact mass: 259.0845
SMILES: COC1=C(C2=C(C=C1)C(=C3C=COC3=N2)OC)OC
InChI: InChI=1S/C14H13NO4/c1-16-10-5-4-8-11(13(10)18-3)15-14-9(6-7-19-14)12(8)17-2/h4-7H,1-3H3
Instrument: LTQ-Orbitrap XL hybrid mass spectrometer (Thermo Scientific)
Instrument type: LC-ESI-ITFT
Ms type: MS2
Ion mode: POSITIVE
Ionization: ESI
Collision energy: 0.3
Column name: Acquity CSHC18
Retention time: 8.902 min
Base peak: 260.0908
Precursor m/z: 260.0908
Precursor type: [M+H]+
Precursor intensity: 29472610
m/z	relative intensity
67.5915	12
70.0122	11
70.3793	10
72.8126	11
80.0703	13
82.2418	13
82.7844	14
82.8251	10
90.5054	14
92.738	10
93.6025	14
93.7433	12
94.1411	15
95.2004	14
98.5344	12
102.7954	13
103.3988	17
103.8815	12
104.2235	14
104.4256	15
106.4408	11
106.4906	12
107.0055	14
107.7206	16
109.8159	13
109.9127	16
111.6751	16
111.7969	13
113.916	15
117.0178	18
117.1793	16
117.5082	16
118.3414	13
118.7018	18
119.2025	18
119.8953	13
121.3716	14
121.5612	14
123.0581	17
123.6802	16
125.2711	21
126.5071	14
130.6191	18
130.8625	17
130.9871	12
130.9958	17
131.205	15
132.9472	16
138.6606	15
138.7299	15
139.8873	14
140.0425	14
140.1199	15
142.8171	17
144.6107	18
151.6833	17
152.1649	17
152.4159	16
156.2261	18
156.6402	19
159.9977	16
160.8793	15
162.916	15
163.0717	17
163.127	15
164.2823	16
185.2863	14
188.5394	16
198.7418	19
205.293	17
216.0646	69
224.142	14
227.0567	560
245.0675	999
260.0911	66
