Mass spectrum: Galactitol; ESI-TOF; MS2; CE: 6.0000000;  [M+H]+
Name: Galactitol
Class: NA
Formula: C6H14O6
Exact mass: 182.07904
SMILES: OCC(O)C(O)C(O)C(O)CO
InChI: InChI=1S/C6H14O6/c7-1-3(9)5(11)6(12)4(10)2-8/h3-12H,1-2H2
Instrument: waters xevo g2 TOF
Instrument type: ESI-TOF
Ms type: MS2
Ion mode: POSITIVE
Ionization: ESI
Collision energy: 6.0000000
Column name: Acquity CSHC18
Retention time: 0.556 min
Base peak: 183.08704
Precursor m/z: 183.08704
Precursor type: [M+H]+
m/z	relative intensity
69.0349	37
71.05	6
73.0298	13
81.0346	33
83.0502	99
84.0525	4
85.0298	60
91.0402	8
97.9692	52
99.0453	162
103.04	12
103.9568	3
111.0334	401
112.049	28
114.9715	33
117.0554	13
122.5295	9
129.0531	999
130.059	68
131.0604	4
131.5348	10
139.5209	8
140.0684	4
140.5408	5
147.049	160
148.0712	13
154.9676	29
156.0376	41
158.0036	37
161.0134	3
164.0248	7
165.0765	412
166.0797	30
171.1271	4
172.9755	87
173.962	59
179.125	1
180.9829	23
183.0872	350
184.0907	22
