Mass spectrum: 1,2-dilinoleoyl-sn-glycero-3-phosphoethanolamine; ESI-TOF; MS2; CE: 6.0000000;  [M+H]+
Name: 1,2-dilinoleoyl-sn-glycero-3-phosphoethanolamine
Class: NA
Formula: C41H74NO8P
Exact mass: 739.51520
SMILES: [H]C(=C([H])C([H])([H])C([H])([H])C([H])([H])C([H])([H])C([H])([H])[H])C([H])([H])C([H])=C([H])C([H])([H])C([H])([H])C([H])([H])C([H])([H])C([H])([H])C([H])([H])C([H])([H])C(=O)OC([H])([H])C([H])(OC(=O)C([H])([H])C([H])([H])C([H])([H])C([H])([H])C([H])([H])C([H])([H])C([H])([H])C([H])=C([H])C([H])([H])C([H])=C([H])C([H])([H])C([H])([H])C([H])([H])C([H])([H])C([H])([H])[H])C([H])([H])OP(=O)([O-])OC([H])([H])C([H])([H])[N+]([H])([H])[H]
InChI: InChI=1S/C41H74NO8P/c1-3-5-7-9-11-13-15-17-19-21-23-25-27-29-31-33-40(43)47-37-39(38-49-51(45,46)48-36-35-42)50-41(44)34-32-30-28-26-24-22-20-18-16-14-12-10-8-6-4-2/h11-14,17-20,39H,3-10,15-16,21-38,42H2,1-2H3,(H,45,46)
Instrument: waters xevo g2 TOF
Instrument type: ESI-TOF
Ms type: MS2
Ion mode: POSITIVE
Ionization: ESI
Collision energy: 6.0000000
Column name: Acquity CSHC18
Retention time: 10.763 min
Base peak: 740.52320
Precursor m/z: 740.52320
Precursor type: [M+H]+
m/z	relative intensity
99.9695	3
257.6053	3
331.2164	4
387.1698	1
389.739	47
390.2405	17
390.7419	5
405.3014	2
408.7137	4
409.2093	2
455.1874	45
456.1909	8
457.1889	2
471.1588	4
487.2137	2
523.3819	2
553.3707	10
587.3813	3
588.3864	3
599.5038	116
600.507	46
601.51	6
618.3413	4
646.9413	5
647.4429	5
647.9418	2
735.4279	12
736.4286	2
740.523	999
741.526	251
