Mass spectrum: Metanephrine; LC-ESI-ITFT; MS2; CE: 10;  [M+H]+
Name: Metanephrine
Class: Benzenoids; Phenols; Methoxyphenols
Formula: C10H15NO3
Exact mass: 197.10519
SMILES: CNCC(O)C1=CC(OC)=C(O)C=C1
InChI: InChI=1S/C10H15NO3/c1-11-6-9(13)7-3-4-8(12)10(5-7)14-2/h3-5,9,11-13H,6H2,1-2H3
Instrument: Thermo Scientific Q-Exactive Focus
Instrument type: LC-ESI-ITFT
Ms type: MS2
Ion mode: POSITIVE
Ionization: ESI
Collision energy: 10
Column name: Acquity CSHC18
Retention time: 0.352 min
Base peak: 198.11247
Precursor m/z: 198.11247
Precursor type: [M+H]+
m/z	relative intensity
120.0809	16
121.0648	6
123.0441	2
147.0676	1
148.0755	29
149.0596	20
149.0834	5
151.0752	6
165.0783	32
180.1019	999
