Mass spectrum: Raffinose; ESI-TOF; MS2; CE: 6.0000000;  [M+H]+
Name: Raffinose
Class: NA
Formula: C18H32O16
Exact mass: 504.16903
SMILES: OCC1OC(OCC2OC(OC3(CO)OC(CO)C(O)C3O)C(O)C(O)C2O)C(O)C(O)C1O
InChI: InChI=1S/C18H32O16/c19-1-5-8(22)11(25)13(27)16(31-5)30-3-7-9(23)12(26)14(28)17(32-7)34-18(4-21)15(29)10(24)6(2-20)33-18/h5-17,19-29H,1-4H2
Instrument: waters xevo g2 TOF
Instrument type: ESI-TOF
Ms type: MS2
Ion mode: POSITIVE
Ionization: ESI
Collision energy: 6.0000000
Column name: Acquity CSHC18
Retention time: 0.557 min
Base peak: 505.17703
Precursor m/z: 505.17703
Precursor type: [M+H]+
m/z	relative intensity
73.0289	2
85.0295	337
91.0395	77
96.9615	284
96.9618	121
97.0288	238
114.9495	2
127.0398	642
135.9926	47
145.0503	662
163.0606	828
186.9692	2
236.9392	55
236.9398	44
272.0665	43
277.0014	32
289.093	35
325.1129	645
326.1156	60
337.0228	189
343.1236	71
365.1045	2
396.0357	822
397.0408	218
398.0428	25
487.1686	37
505.1767	43
522.204	147
523.2056	33
524.1486	44
527.1587	999
528.1607	187
529.1591	37
558.0905	2
559.0907	67
667.2268	39
685.2391	99
900.1949	36
1062.264	43
