Mass spectrum: Hypotaurine; LC-ESI-ITFT; MS2; CE: 100;  [M+H]+
Name: Hypotaurine
Class: Organic acids and derivatives; Sulfinic acids and derivatives; Sulfinic acids
Formula: C2H7NO2S
Exact mass: 109.01975
SMILES: NCCS(O)=O
InChI: InChI=1S/C2H7NO2S/c3-1-2-6(4)5/h1-3H2,(H,4,5)
Instrument: Thermo Scientific Q-Exactive Focus
Instrument type: LC-ESI-ITFT
Ms type: MS2
Ion mode: POSITIVE
Ionization: ESI
Collision energy: 100
Column name: Acquity CSHC18
Retention time: 1.826 min
Base peak: 110.02703
Precursor m/z: 110.02703
Precursor type: [M+H]+
m/z	relative intensity
50.0731	828
55.9349	792
56.0149	830
60.8804	842
67.1479	774
90.5295	853
96.5125	829
96.9947	776
100.1536	835
103.2962	999
