Mass spectrum: Prostaglandin D2-1-glyceryl ester; ESI-TOF; MS2; CE: 0.6458333;  [M+H]+
Name: Prostaglandin D2-1-glyceryl ester
Class: NA
Formula: C23H38O7
Exact mass: 426.26175
SMILES: CCCCC[C@@H](O)\C=C\[C@@H]1[C@@H](C\C=C/CCCC(=O)OCC(O)CO)[C@@H](O)CC1=O
InChI: InChI=1S/C23H38O7/c1-2-3-6-9-17(25)12-13-20-19(21(27)14-22(20)28)10-7-4-5-8-11-23(29)30-16-18(26)15-24/h4,7,12-13,17-21,24-27H,2-3,5-6,8-11,14-16H2,1H3/b7-4-,13-12+/t17-,18?,19-,20-,21+/m1/s1
Instrument: waters xevo g2 TOF
Instrument type: ESI-TOF
Ms type: MS2
Ion mode: POSITIVE
Ionization: ESI
Collision energy: 0.6458333
Column name: Acquity CSHC18
Retention time: 3.415 min
Base peak: 427.26975
Precursor m/z: 427.26975
Precursor type: [M+H]+
m/z	relative intensity
67.0529	174
81.0697	479
91.0546	382
106.074	49
109.1022	404
112.9904	212
117.0708	545
121.0664	356
123.0818	84
131.0452	315
133.065	474
135.0815	377
141.071	222
142.0779	81
143.0844	418
146.1075	61
147.0819	469
149.0966	164
151.1096	57
155.0857	442
156.089	67
157.1016	442
159.0806	501
161.0961	281
163.1115	128
165.0909	65
169.1019	806
172.1226	74
173.1324	567
175.1106	222
177.0929	79
185.0955	333
189.1279	335
191.1449	189
197.1312	322
202.1109	32
205.1598	301
207.1087	69
209.0143	103
211.1127	205
213.1611	94
224.1067	339
225.1168	132
229.1962	90
233.1539	999
234.1638	106
237.1631	101
244.0549	81
247.0641	115
257.1903	339
259.0479	252
260.0506	88
263.1063	338
265.0711	196
271.2097	411
281.1907	601
299.1995	123
300.2038	326
317.211	467
318.2141	76
355.1584	944
356.1591	179
363.249	56
374.2006	138
391.212	915
392.2506	337
416.2323	75
427.154	80
