Mass spectrum: Elymoclavin; LC-ESI-QTOF; MS2; CE: 15.00;  [M+H]+
Name: Elymoclavin
Class: NA
Formula: C16H18N2O
Exact mass: 254.1419
SMILES: CN1CC(=CC2C1CC3=CNC4=CC=CC2=C34)CO
InChI: InChI=1S/C16H18N2O/c1-18-8-10(9-19)5-13-12-3-2-4-14-16(12)11(7-17-14)6-15(13)18/h2-5,7,13,15,17,19H,6,8-9H2,1H3
Instrument: Bruker MicrOTOF-Q
Instrument type: LC-ESI-QTOF
Ms type: MS2
Ion mode: POSITIVE
Ionization: ESI
Collision energy: 15.00
Column name: Acquity CSHC18
Retention time: NA
Base peak: 255.1492
Precursor m/z: 255.1492
Precursor type: [M+H]+
m/z	relative intensity
167.0734	25
168.0803	25
172.0992	27
181.0881	30
182.0924	30
183.092	34
184.1055	36
185.1074	36
191.0719	42
194.0958	46
195.0994	49
196.1115	55
197.1088	59
198.1004	64
206.0961	73
207.0979	77
208.1108	77
209.0863	79
212.1068	79
213.1092	85
214.1222	88
222.1143	156
224.1073	161
225.1304	181
226.1328	221
237.1381	258
238.1394	259
255.1493	586
256.1519	999
