Mass spectrum: Aldosterone; LC-ESI-QTOF; MS2; CE: 20;  [M+H]+
Name: Aldosterone
Class: NA
Formula: C21H28O5
Exact mass: 360.1937
SMILES: C[C@]12CCC(=O)C=C1CC[C@@H]3[C@@H]2[C@H](C[C@]4([C@H]3CC[C@@H]4C(=O)CO)C=O)O
InChI: InChI=1S/C21H28O5/c1-20-7-6-13(24)8-12(20)2-3-14-15-4-5-16(18(26)10-22)21(15,11-23)9-17(25)19(14)20/h8,11,14-17,19,22,25H,2-7,9-10H2,1H3/t14-,15-,16+,17-,19+,20-,21+/m0/s1
Instrument: Agilent 6560Â Ion Mobility Q-TOF LC/MS
Instrument type: LC-ESI-QTOF
Ms type: MS2
Ion mode: POSITIVE
Ionization: ESI
Collision energy: 20
Column name: Acquity CSHC18
Retention time: 0.200 min
Base peak: 361.2012
Precursor m/z: 361.2012
Precursor type: [M+H]+
Precursor intensity: 168.5
m/z	relative intensity
79.054	132
81.0678	142
86.8543	157
91.057	160
92.0581	161
93.0714	163
105.0439	165
109.0657	166
111.0788	168
121.0729	173
129.018	174
131.0872	176
145.1039	178
155.0869	178
157.0998	182
162.0993	183
169.1016	184
171.1191	187
175.1094	189
183.1152	189
185.1339	201
189.1018	205
197.1321	207
199.1112	213
201.0904	214
207.124	214
209.1374	216
211.1429	222
223.1535	224
227.1435	230
229.1228	230
235.147	251
239.1537	252
240.1546	253
241.1765	262
248.1193	269
253.1628	279
255.1745	285
261.1644	298
263.1455	305
267.1529	306
279.1766	325
297.1899	342
299.1646	386
300.1695	398
313.1773	432
315.2044	494
325.1903	639
326.1846	845
343.2006	999
361.204	132
361.3724	142
