Mass spectrum: C18:1(?9-cis) Carnitine; ESI-TOF; MS2; CE: 6.0000000;  [M+H]+
Name: C18:1(?9-cis) Carnitine
Class: NA
Formula: C25H47NO4
Exact mass: 425.35051
SMILES: [H]C(=C([H])C([H])([H])C([H])([H])C([H])([H])C([H])([H])C([H])([H])C([H])([H])C([H])([H])C([H])([H])[H])C([H])([H])C([H])([H])C([H])([H])C([H])([H])C([H])([H])C([H])([H])C([H])([H])C(=O)OC([H])(C([H])([H])C(=O)[O-])C([H])([H])[N+](C([H])([H])[H])(C([H])([H])[H])C([H])([H])[H]
InChI: InChI=1S/C25H47NO4/c1-5-6-7-8-9-10-11-12-13-14-15-16-17-18-19-20-25(29)30-23(21-24(27)28)22-26(2,3)4/h12-13,23H,5-11,14-22H2,1-4H3
Instrument: waters xevo g2 TOF
Instrument type: ESI-TOF
Ms type: MS2
Ion mode: POSITIVE
Ionization: ESI
Collision energy: 6.0000000
Column name: Acquity CSHC18
Retention time: 5.180 min
Base peak: 426.35851
Precursor m/z: 426.35851
Precursor type: [M+H]+
m/z	relative intensity
85.0294	4
367.284	11
368.2867	2
389.2663	1
426.4697	999
427.529	334
