Mass spectrum: DEOXYADENOSINE; LC-ESI-QFT; MS2; CE: 30eV;  [M+H]+
Name: DEOXYADENOSINE
Class: NA
Formula: C10H13N5O3
Exact mass: 251.10184
SMILES: NC1=NC=NC2=C1N=CN2[C@H]1C[C@H](O)[C@@H](CO)O1
InChI: InChI=1S/C10H13N5O3/c11-9-8-10(13-3-12-9)15(4-14-8)7-1-5(17)6(2-16)18-7/h3-7,16-17H,1-2H2,(H2,11,12,13)/t5-,6+,7+/m0/s1
Instrument: Q-Exactive Orbitrap, Thermo Scientfic; Ultimate 3000 HPLC, Thermo Scientfic
Instrument type: LC-ESI-QFT
Ms type: MS2
Ion mode: POSITIVE
Ionization: ESI
Collision energy: 30eV
Column name: Acquity CSHC18
Retention time: 1.346 min
Base peak: 252.1091
Precursor m/z: 252.1091
Precursor type: [M+H]+
Precursor intensity: 191
m/z	relative intensity
52.6338	3
57.0344	17
67.0295	3
69.0343	16
71.0499	70
73.0292	98
81.0342	38
85.1024	3
92.9905	3
99.0447	284
100.0479	3
103.7097	3
117.0552	999
118.0584	30
119.0355	8
126.6709	3
137.0592	66
137.0655	237
154.5509	4
174.0659	4
208.743	4
252.1096	238
253.1129	18
