Mass spectrum: Coenzyme Q8(E. coli); ESI-TOF; MS2; CE: 0.6458333;  [M+H]+
Name: Coenzyme Q8(E. coli)
Class: NA
Formula: C49H74O4
Exact mass: 726.55871
SMILES: [H]C(=C(C([H])([H])[H])C([H])([H])C([H])([H])C([H])=C(C([H])([H])[H])C([H])([H])C([H])([H])C([H])=C(C([H])([H])[H])C([H])([H])C([H])([H])C([H])=C(C([H])([H])[H])C([H])([H])C([H])([H])C([H])=C(C([H])([H])[H])C([H])([H])C([H])([H])C([H])=C(C([H])([H])[H])C([H])([H])C([H])([H])C([H])=C(C([H])([H])[H])C([H])([H])C([H])([H])C([H])=C(C([H])([H])[H])C([H])([H])[H])C([H])([H])C=1C(=O)C(OC([H])([H])[H])=C(OC([H])([H])[H])C(=O)C=1C([H])([H])[H]
InChI: InChI=1S/C49H74O4/c1-36(2)20-13-21-37(3)22-14-23-38(4)24-15-25-39(5)26-16-27-40(6)28-17-29-41(7)30-18-31-42(8)32-19-33-43(9)34-35-45-44(10)46(50)48(52-11)49(53-12)47(45)51/h20,22,24,26,28,30,32,34H,13-19,21,23,25,27,29,31,33,35H2,1-12H3
Instrument: waters xevo g2 TOF
Instrument type: ESI-TOF
Ms type: MS2
Ion mode: POSITIVE
Ionization: ESI
Collision energy: 0.6458333
Column name: Acquity CSHC18
Retention time: 13.082 min
Base peak: 727.56671
Precursor m/z: 727.56671
Precursor type: [M+H]+
m/z	relative intensity
81.071	46
84.9608	166
97.9696	58
98.9623	41
107.0868	42
109.1023	92
121.1023	45
123.1168	49
135.1181	58
147.1168	29
149.1325	78
154.0614	43
163.1485	57
177.1646	41
181.0875	31
197.0815	999
198.0855	108
217.1972	33
237.1132	37
259.0282	63
355.0687	34
429.0888	34
709.5534	93
710.5619	39
727.5665	561
728.5708	307
