Mass spectrum: chrysin; LC-ESI-ITFT; MS2; CE: 0.3;  [M-H]-
Name: chrysin
Class: flavones
Formula: C15H10O4
Exact mass: 254.0579
SMILES: C1=CC=C(C=C1)C2=CC(=O)C3=C(C=C(C=C3O2)O)O
InChI: InChI=1S/C15H10O4/c16-10-6-11(17)15-12(18)8-13(19-14(15)7-10)9-4-2-1-3-5-9/h1-8,16-17H
Instrument: LTQ-Orbitrap XL hybrid mass spectrometer (Thermo Scientific)
Instrument type: LC-ESI-ITFT
Ms type: MS2
Ion mode: NEGATIVE
Ionization: ESI
Collision energy: 0.3
Column name: Acquity CSHC18
Retention time: 11.005 min
Base peak: 253.0506
Precursor m/z: 253.0506
Precursor type: [M-H]-
Precursor intensity: 36115000
m/z	relative intensity
55.1912	9
55.834	9
55.8768	9
56.2251	8
57.5528	8
58.9971	8
59.5954	9
59.6204	9
59.805	7
59.9078	10
60.2252	7
60.6705	9
71.4779	9
81.0566	16
95.7677	7
102.3597	8
106.8087	8
107.0143	14
143.0508	26
151.0041	20
153.0713	13
165.071	35
167.0499	10
167.0788	45
180.0585	50
181.066	51
183.0442	12
185.061	22
197.7026	17
208.0536	12
209.061	333
210.0632	15
211.0405	38
225.0559	10
253.0507	999
