Mass spectrum: S-ADENOSYLMETHIONINE; LC-ESI-QTOF; MS2; CE: 10;  [M+H]+
Name: S-ADENOSYLMETHIONINE
Class: NA
Formula: C15H22N6O5S
Exact mass: 398.13724
SMILES: C[S+](CC[C@@H](C(=O)[O-])N)C[C@@H]1[C@H]([C@H]([C@@H](O1)N2C=NC3=C(N=CN=C32)N)O)O
InChI: InChI=1S/C15H22N6O5S/c1-27(3-2-7(16)15(24)25)4-8-10(22)11(23)14(26-8)21-6-20-9-12(17)18-5-19-13(9)21/h5-8,10-11,14,22-23H,2-4,16H2,1H3,(H2-,17,18,19,24,25)/t7-,8+,10+,11+,14+,27?/m0/s1
Instrument: Agilent 6530Â Q-TOF LC/MS
Instrument type: LC-ESI-QTOF
Ms type: MS2
Ion mode: POSITIVE
Ionization: ESI
Collision energy: 10
Column name: NA
Retention time: 0.200 min
Base peak: 399.14851
Precursor m/z: 399.14851
Precursor type: [M+H]+
Precursor intensity: 175.5
m/z	relative intensity
56.0519	31
69.0332	32
74.0322	33
97.0477	38
102.0767	46
136.0895	48
137.0674	54
145.0371	55
163.0432	63
250.1583	69
250.5471	76
250.6514	77
251.1144	202
264.1017	244
298.1309	249
357.9133	326
398.9825	475
399.1714	999
