Mass spectrum: Taurocholic acid; LC-ESI-ITFT; MS2; CE: 30;  [M-H]-
Name: Taurocholic acid
Class: Lipids and lipid-like molecules; Steroids and steroid derivatives; Bile acids, alcohols and derivatives
Formula: C26H45NO7S
Exact mass: 515.29167
SMILES: [H][C@@]1(CC[C@@]2([H])[C@]3([H])[C@H](O)C[C@]4([H])C[C@H](O)CC[C@]4(C)[C@@]3([H])C[C@H](O)[C@]12C)[C@H](C)CCC(=O)NCCS(O)(=O)=O
InChI: InChI=1S/C26H45NO7S/c1-15(4-7-23(31)27-10-11-35(32,33)34)18-5-6-19-24-20(14-22(30)26(18,19)3)25(2)9-8-17(28)12-16(25)13-21(24)29/h15-22,24,28-30H,4-14H2,1-3H3,(H,27,31)(H,32,33,34)/t15-,16+,17-,18-,19+,20+,21-,22+,24+,25+,26-/m1/s1
Instrument: Thermo Scientific Q-Exactive Focus
Instrument type: LC-ESI-ITFT
Ms type: MS2
Ion mode: NEGATIVE
Ionization: ESI
Collision energy: 30
Column name: Acquity CSHC18
Retention time: NA
Base peak: 514.28442
Precursor m/z: 514.28442
Precursor type: [M-H]-
m/z	relative intensity
514.2842	999
