Mass spectrum: 3-Chlorotyrosine; ESI-TOF; MS2; CE: 6.0000000;  [M+H]+
Name: 3-Chlorotyrosine
Class: NA
Formula: C9H10ClNO3
Exact mass: 215.03492
SMILES: NC(CC1=CC(Cl)=C(O)C=C1)C(O)=O
InChI: InChI=1S/C9H10ClNO3/c10-6-3-5(1-2-8(6)12)4-7(11)9(13)14/h1-3,7,12H,4,11H2,(H,13,14)
Instrument: waters xevo g2 TOF
Instrument type: ESI-TOF
Ms type: MS2
Ion mode: POSITIVE
Ionization: ESI
Collision energy: 6.0000000
Column name: Acquity CSHC18
Retention time: 0.981 min
Base peak: 216.04292
Precursor m/z: 216.04292
Precursor type: [M+H]+
m/z	relative intensity
130.9667	3
131.9407	6
149.9614	8
153.0108	24
155.0079	4
157.0056	118
170.0372	999
171.0408	49
172.0345	102
181.0058	36
199.0163	336
202.017	7
216.0427	200
218.04	41
219.0435	4
275.8887	1
