Mass spectrum: Ornithine; LC-ESI-ITFT; MS2; CE: 100;  [M+H]+
Name: Ornithine
Class: Organic acids and derivatives; Carboxylic acids and derivatives; Amino acids, peptides, and analogues
Formula: C5H12N2O2
Exact mass: 132.08988
SMILES: NCCC[C@H](N)C(O)=O
InChI: InChI=1S/C5H12N2O2/c6-3-1-2-4(7)5(8)9/h4H,1-3,6-7H2,(H,8,9)/t4-/m0/s1
Instrument: Thermo Scientific Q-Exactive Focus
Instrument type: LC-ESI-ITFT
Ms type: MS2
Ion mode: POSITIVE
Ionization: ESI
Collision energy: 100
Column name: Acquity CSHC18
Retention time: 2.570 min
Base peak: 133.09715
Precursor m/z: 133.09715
Precursor type: [M+H]+
m/z	relative intensity
53.0028	999
56.3404	643
59.9308	670
73.1201	737
114.372	649
120.7519	659
127.957	701
129.0852	630
133.4721	648
133.5064	641
