Mass spectrum: 6-beta-Glucosyloxy-indole-3-carboxylic acid; LC-ESI-QTOF; MS2; CE: 17.86;  [M-H]-
Name: 6-beta-Glucosyloxy-indole-3-carboxylic acid
Class: NA
Formula: C15H17NO8
Exact mass: 339.0954
SMILES: C1=CC2=C(C=C1OC3C(C(C(C(O3)CO)O)O)O)NC=C2C(=O)O
InChI: InChI=1S/C15H17NO8/c17-5-10-11(18)12(19)13(20)15(24-10)23-6-1-2-7-8(14(21)22)4-16-9(7)3-6/h1-4,10-13,15-20H,5H2,(H,21,22)
Instrument: Bruker MicrOTOF-Q
Instrument type: LC-ESI-QTOF
Ms type: MS2
Ion mode: NEGATIVE
Ionization: ESI
Collision energy: 17.86
Column name: Acquity CSHC18
Retention time: NA
Base peak: 338.0881
Precursor m/z: 338.0881
Precursor type: [M-H]-
m/z	relative intensity
96.9613	45
96.9658	50
104.057	30
131.034	43
132.0448	999
133.0481	38
167.0347	38
175.019	130
175.0273	30
175.0282	46
176.0296	145
176.0331	169
