Mass spectrum: alpha-D-Talose; ESI-TOF; MS2; CE: 0.6458333;  [M+H]+
Name: alpha-D-Talose
Class: NA
Formula: C6H12O6
Exact mass: 180.06339
SMILES: O[C@H]1[C@@H](O)[C@H](O[C@H](O)[C@H]1O)CO
InChI: InChI=1S/C6H12O6/c7-1-2-3(8)4(9)5(10)6(11)12-2/h2-11H,1H2/t2-,3+,4+,5+,6+/m1/s1
Instrument: waters xevo g2 TOF
Instrument type: ESI-TOF
Ms type: MS2
Ion mode: POSITIVE
Ionization: ESI
Collision energy: 0.6458333
Column name: Acquity CSHC18
Retention time: 0.537 min
Base peak: 181.07139
Precursor m/z: 181.07139
Precursor type: [M+H]+
m/z	relative intensity
155.0298	252
174.9691	280
200.0451	11
200.5474	11
201.0467	11
203.0529	772
204.0557	11
208.0317	11
209.0312	11
219.0185	999
234.9912	394
279.9883	11
280.9947	11
294.0057	592
324.0154	11
414.0472	11
415.0514	11
