Mass spectrum: ISOLEUCINE; LC-ESI-QFT; MS2; CE: 30eV;  [M+H]+
Name: ISOLEUCINE
Class: NA
Formula: C6H13NO2
Exact mass: 131.09463
SMILES: CC[C@H](C)[C@H](N)C(O)=O
InChI: InChI=1S/C6H13NO2/c1-3-4(2)5(7)6(8)9/h4-5H,3,7H2,1-2H3,(H,8,9)/t4-,5-/m0/s1
Instrument: Q-Exactive Orbitrap, Thermo Scientfic; Ultimate 3000 HPLC, Thermo Scientfic
Instrument type: LC-ESI-QFT
Ms type: MS2
Ion mode: POSITIVE
Ionization: ESI
Collision energy: 30eV
Column name: Acquity CSHC18
Retention time: 0.909 min
Base peak: 132.1019
Precursor m/z: 132.1019
Precursor type: [M+H]+
Precursor intensity: 176
m/z	relative intensity
52.9801	2
53.2416	2
54.2841	2
55.0552	2
56.05	23
56.4419	2
57.058	25
58.0659	28
59.4215	2
62.9253	2
67.0549	6
67.2117	2
69.0706	999
70.0739	19
71.9301	3
72.6894	2
72.9378	4
73.0655	5
85.9155	3
87.094	19
87.1003	263
113.3616	3
113.5745	3
115.0754	3
125.9612	3
131.1263	7
132.1022	326
133.1055	5
148.9776	3
150.8142	2
