Mass spectrum: 5-Hydroxylysine; ESI-TOF; MS2; CE: 0.6458333;  [M+H]+
Name: 5-Hydroxylysine
Class: NA
Formula: C6H14N2O3
Exact mass: 162.10044
SMILES: NCC(O)CCC(N)C(O)=O
InChI: InChI=1S/C6H14N2O3/c7-3-4(9)1-2-5(8)6(10)11/h4-5,9H,1-3,7-8H2,(H,10,11)
Instrument: waters xevo g2 TOF
Instrument type: ESI-TOF
Ms type: MS2
Ion mode: POSITIVE
Ionization: ESI
Collision energy: 0.6458333
Column name: Acquity CSHC18
Retention time: 0.479 min
Base peak: 163.10844
Precursor m/z: 163.10844
Precursor type: [M+H]+
m/z	relative intensity
55.0552	34
68.0498	4
74.0244	84
82.066	999
83.0692	61
90.9048	19
99.0931	17
100.0762	258
101.0353	27
113.0093	5
128.0713	588
129.0638	40
131.9513	20
133.9291	21
137.9915	1
140.9887	21
145.058	51
146.0822	37
154.0196	14
163.1081	95
172.0298	21
183.0441	11
185.0907	10
188.9966	10
199.0166	18
217.0274	14
284.0693	11
312.0659	20
361.119	3
387.0464	10
388.0462	6
432.0414	41
434.0452	14
594.1396	41
595.1472	9
