Mass spectrum: 8-(methylsulfinyl)octyl isothiocyanate; LC-ESI-QTOF; MS2; CE: 15.00;  [M+H]+
Name: 8-(methylsulfinyl)octyl isothiocyanate
Class: NA
Formula: C10H19NOS2
Exact mass: 233.0908
SMILES: CS(=O)CCCCCCCCN=C=S
InChI: InChI=1S/C10H19NOS2/c1-14(12)9-7-5-3-2-4-6-8-11-10-13/h2-9H2,1H3
Instrument: Bruker MicrOTOF-Q
Instrument type: LC-ESI-QTOF
Ms type: MS2
Ion mode: POSITIVE
Ionization: ESI
Collision energy: 15.00
Column name: Acquity CSHC18
Retention time: NA
Base peak: 234.0981
Precursor m/z: 234.0981
Precursor type: [M+H]+
m/z	relative intensity
114.036	25
115.0485	7
119.0846	10
121.0896	5
122.0958	23
123.0988	4
125.036	3
126.1267	14
127.0612	6
128.0524	56
129.0584	6
136.1124	56
137.1196	194
138.1196	20
141.0702	13
142.0709	8
143.0831	9
153.0711	22
159.1162	3
160.0642	4
161.0996	62
162.1035	4
168.0821	5
170.1	999
171.1029	96
172.0966	9
175.116	20
176.1183	3
233.2069	10
234.0983	438
234.2026	99
235.1023	50
235.2052	14
236.091	8
