Mass spectrum: Ureidopropionic acid; ESI-TOF; MS2; CE: 0.6458333;  [M+H]+
Name: Ureidopropionic acid
Class: NA
Formula: C4H8N2O3
Exact mass: 132.05349
SMILES: NC(=O)NCCC(O)=O
InChI: InChI=1S/C4H8N2O3/c5-4(9)6-2-1-3(7)8/h1-2H2,(H,7,8)(H3,5,6,9)
Instrument: waters xevo g2 TOF
Instrument type: ESI-TOF
Ms type: MS2
Ion mode: POSITIVE
Ionization: ESI
Collision energy: 0.6458333
Column name: Acquity CSHC18
Retention time: 0.608 min
Base peak: 133.06149
Precursor m/z: 133.06149
Precursor type: [M+H]+
m/z	relative intensity
90.055	3
96.9611	3
96.9612	3
97.969	999
111.0209	3
115.0506	6
133.061	3
137.9881	3
141.9828	101
144.9882	3
155.0431	3
155.9896	3
184.9862	3
195.9936	3
212.0338	3
231.9781	3
319.0321	3
