Mass spectrum: Dihydrolipoate; LC-ESI-QTOF; MS2; CE: 20 / 50;  [M-H]-
Name: Dihydrolipoate
Class: Medium-chain fatty acids
Formula: C8H16O2S2
Exact mass: 208.05917
SMILES: OC(=O)CCCCC(S)CCS
InChI: InChI=1S/C8H16O2S2/c9-8(10)4-2-1-3-7(12)5-6-11/h7,11-12H,1-6H2,(H,9,10)
Instrument: impact II
Instrument type: LC-ESI-QTOF
Ms type: MS2
Ion mode: NEGATIVE
Ionization: ESI
Collision energy: 20 / 50
Column name: Acquity CSHC18
Retention time: 1.608 min
Base peak: 207.05180
Precursor m/z: 207.05180
Precursor type: [M-H]-
m/z	relative intensity
32.9806	763
129.0741	999
139.0764	523
173.0641	875
