Mass spectrum: 15-keto Prostaglandin E1; ESI-TOF; MS2; CE: 0.6458333;  [M+H]+
Name: 15-keto Prostaglandin E1
Class: NA
Formula: C20H32O5
Exact mass: 352.22497
SMILES: O[C@H]1[C@H](/C=C/C(CCCCC)=O)[C@@H](CCCCCCC(O)=O)C(C1)=O
InChI: InChI=1S/C20H32O5/c1-2-3-6-9-15(21)12-13-17-16(18(22)14-19(17)23)10-7-4-5-8-11-20(24)25/h12-13,16-17,19,23H,2-11,14H2,1H3,(H,24,25)/b13-12+/t16-,17-,19-/m1/s1
Instrument: waters xevo g2 TOF
Instrument type: ESI-TOF
Ms type: MS2
Ion mode: POSITIVE
Ionization: ESI
Collision energy: 0.6458333
Column name: Acquity CSHC18
Retention time: 3.544 min
Base peak: 353.23297
Precursor m/z: 353.23297
Precursor type: [M+H]+
m/z	relative intensity
71.0853	279
79.0542	78
81.0702	139
91.0551	203
95.0855	100
99.081	520
105.0714	66
107.0654	98
117.071	125
119.0849	109
121.0647	98
129.072	69
131.0848	204
133.1005	71
135.0815	51
141.0695	48
143.0857	62
144.0567	28
145.0649	105
147.1177	62
149.0969	37
151.1119	127
155.0856	54
157.1035	65
159.1177	159
163.1111	38
169.1027	33
173.1334	149
175.1118	98
177.1459	54
183.118	154
191.1431	150
196.0934	4
197.1304	38
201.1278	722
202.1313	97
205.0983	161
215.1443	25
217.1193	39
219.1384	559
220.1414	72
221.116	4
249.08	103
265.2131	4
271.2052	121
273.1834	4
281.1875	116
289.215	246
291.1942	4
293.1989	4
299.2008	311
300.2041	52
317.2107	999
318.2141	229
319.2152	4
335.2217	198
336.2247	4
337.1794	73
345.1153	131
346.1179	43
353.2319	4
354.234	4
