Mass spectrum: maltotriose; LC-ESI-QTOF; MS2; CE: -10, -35, -60V;  [M-H]-
Name: maltotriose
Class: NA
Formula: C18H32O16
Exact mass: 504.1690
SMILES: C(C1C(C(C(C(O1)OC2C(OC(C(C2O)O)OC3C(OC(C(C3O)O)O)CO)CO)O)O)O)O
InChI: InChI=1S/C18H32O16/c19-1-4-7(22)8(23)12(27)17(31-4)34-15-6(3-21)32-18(13(28)10(15)25)33-14-5(2-20)30-16(29)11(26)9(14)24/h4-29H,1-3H2
Instrument: TripleToF 5600; Sciex
Instrument type: LC-ESI-QTOF
Ms type: MS2
Ion mode: NEGATIVE
Ionization: ESI
Collision energy: -10, -35, -60V
Column name: Acquity CSHC18
Retention time: 0.674 min
Base peak: 503.1674
Precursor m/z: 503.1674
Precursor type: [M-H]-
Precursor intensity: 61689.44
m/z	relative intensity
71.0157	59
73.0294	135
87.0107	20
89.0316	112
101.0262	147
113.0195	63
113.0255	63
119.0371	47
161.0468	739
162.0498	61
174.1172	23
179.058	258
221.0681	205
263.0686	52
281.0807	156
281.0949	159
282.1158	22
341.1156	759
342.1149	93
383.1175	232
384.135	38
425.1323	174
443.1402	151
503.1657	999
