Mass spectrum: 3-DEHYDROSHIKIMATE; LC-ESI-QTOF; MS2; CE: 40;  [M-H]-
Name: 3-DEHYDROSHIKIMATE
Class: NA
Formula: C7H8O5
Exact mass: 172.03717
SMILES: O[C@@H]1CC(=CC(=O)[C@H]1O)C(O)=O
InChI: InChI=1S/C7H8O5/c8-4-1-3(7(11)12)2-5(9)6(4)10/h1,5-6,9-10H,2H2,(H,11,12)/t5-,6-/m1/s1
Instrument: Agilent 6530Â Q-TOF LC/MS
Instrument type: LC-ESI-QTOF
Ms type: MS2
Ion mode: NEGATIVE
Ionization: ESI
Collision energy: 40
Column name: NA
Retention time: 0.200 min
Base peak: 171.03214
Precursor m/z: 171.03214
Precursor type: [M-H]-
Precursor intensity: 191
m/z	relative intensity
41.0152	120
43.0242	142
51.0272	149
53.0499	173
65.0301	174
67.0243	284
80.0294	301
81.038	354
91.0278	425
108.0404	428
109.0441	999
