Mass spectrum: C18 Ceramide (d18:1/18:0); ESI-TOF; MS2; CE: 0.6458333;  [M+H]+
Name: C18 Ceramide (d18:1/18:0)
Class: NA
Formula: C36H71NO3
Exact mass: 565.54340
SMILES: [H]OC([H])([H])C([H])(N([H])C(=O)C([H])([H])C([H])([H])C([H])([H])C([H])([H])C([H])([H])C([H])([H])C([H])([H])C([H])([H])C([H])([H])C([H])([H])C([H])([H])C([H])([H])C([H])([H])C([H])([H])C([H])([H])C([H])([H])C([H])([H])[H])C([H])(O[H])C([H])=C([H])C([H])([H])C([H])([H])C([H])([H])C([H])([H])C([H])([H])C([H])([H])C([H])([H])C([H])([H])C([H])([H])C([H])([H])C([H])([H])C([H])([H])C([H])([H])[H]
InChI: InChI=1S/C36H71NO3/c1-3-5-7-9-11-13-15-17-18-20-22-24-26-28-30-32-36(40)37-34(33-38)35(39)31-29-27-25-23-21-19-16-14-12-10-8-6-4-2/h29,31,34-35,38-39H,3-28,30,32-33H2,1-2H3,(H,37,40)
Instrument: waters xevo g2 TOF
Instrument type: ESI-TOF
Ms type: MS2
Ion mode: POSITIVE
Ionization: ESI
Collision energy: 0.6458333
Column name: Acquity CSHC18
Retention time: 11.269 min
Base peak: 566.55140
Precursor m/z: 566.55140
Precursor type: [M+H]+
m/z	relative intensity
121.1008	7
252.2693	94
253.273	18
264.2694	999
265.2726	207
266.2759	17
278.7427	39
279.2432	11
282.2792	137
283.2824	20
284.2933	21
284.7425	18
322.241	22
348.2588	25
364.2286	7
518.531	20
530.53	59
531.5364	21
537.3935	22
548.5411	504
549.5443	210
550.5508	24
566.5511	88
567.5551	38
