Mass spectrum: L-Proline; ESI-TOF; MS2; CE: 0.6458333;  [M+H]+
Name: L-Proline
Class: NA
Formula: C5H9NO2
Exact mass: 115.06333
SMILES: OC(=O)C1CCCN1
InChI: InChI=1S/C5H9NO2/c7-5(8)4-2-1-3-6-4/h4,6H,1-3H2,(H,7,8)
Instrument: waters xevo g2 TOF
Instrument type: ESI-TOF
Ms type: MS2
Ion mode: POSITIVE
Ionization: ESI
Collision energy: 0.6458333
Column name: Acquity CSHC18
Retention time: 0.559 min
Base peak: 116.07133
Precursor m/z: 116.07133
Precursor type: [M+H]+
m/z	relative intensity
70.066	999
71.07	40
116.0712	360
117.0741	2
118.0746	2
122.0794	7
124.9924	69
138.0528	107
154.0181	79
158.0209	26
160.035	162
160.9893	2
192.98	117
194.051	456
195.0419	48
240.0562	191
242.0709	36
258.1725	11
259.1765	2
262.0386	170
269.0805	379
270.0843	37
285.0549	2
287.0532	2
291.0642	117
307.0348	151
308.0357	21
330.0235	44
370.1535	2
384.1443	23
390.1502	2
392.1361	17
399.1115	36
400.1132	2
406.1275	2
421.0914	2
422.0956	2
437.063	2
438.0674	42
499.2058	2
514.1711	2
515.1739	2
555.1309	2
558.1333	2
569.1002	51
575.1028	15
591.0806	61
667.1833	2
