Mass spectrum: C24:1 Dihydroceramide (d18:0/24:1(15Z)); ESI-TOF; MS2; CE: 0.6458333;  [M+H]+
Name: C24:1 Dihydroceramide (d18:0/24:1(15Z))
Class: NA
Formula: C42H83NO3
Exact mass: 649.63730
SMILES: [H]OC([H])([H])C([H])(N([H])C(=O)C([H])([H])C([H])([H])C([H])([H])C([H])([H])C([H])([H])C([H])([H])C([H])([H])C([H])([H])C([H])([H])C([H])([H])C([H])([H])C([H])([H])C([H])([H])C([H])=C([H])C([H])([H])C([H])([H])C([H])([H])C([H])([H])C([H])([H])C([H])([H])C([H])([H])C([H])([H])[H])C([H])(O[H])C([H])([H])C([H])([H])C([H])([H])C([H])([H])C([H])([H])C([H])([H])C([H])([H])C([H])([H])C([H])([H])C([H])([H])C([H])([H])C([H])([H])C([H])([H])C([H])([H])C([H])([H])[H]
InChI: InChI=1S/C42H83NO3/c1-3-5-7-9-11-13-15-17-18-19-20-21-22-23-24-26-28-30-32-34-36-38-42(46)43-40(39-44)41(45)37-35-33-31-29-27-25-16-14-12-10-8-6-4-2/h17-18,40-41,44-45H,3-16,19-39H2,1-2H3,(H,43,46)
Instrument: waters xevo g2 TOF
Instrument type: ESI-TOF
Ms type: MS2
Ion mode: POSITIVE
Ionization: ESI
Collision energy: 0.6458333
Column name: Acquity CSHC18
Retention time: 12.284 min
Base peak: 650.64530
Precursor m/z: 650.64530
Precursor type: [M+H]+
m/z	relative intensity
84.9606	19
84.9608	21
98.9626	7
267.2867	12
285.2995	31
303.3094	13
366.3717	28
431.3393	12
446.307	22
614.6232	36
615.622	11
632.6346	999
635.6394	11
650.6451	960
651.6484	464
652.6524	115
653.6558	14
669.6185	151
670.1209	79
670.6225	42
671.1218	17
688.5949	19
689.0898	7
689.5919	8
689.6026	8
703.5531	2
704.5647	26
705.5653	11
736.6001	5
994.4378	137
994.9392	177
995.4393	132
995.9421	66
996.4406	28
996.9336	10
1002.9245	7
1003.4268	8
1003.9289	6
1021.8969	7
