Mass spectrum: Scoparone; LC-ESI-ITFT; MS2; CE: 45eV;  [M+H]+
Name: Scoparone
Class: coumarin
Formula: C11H10O4
Exact mass: 206.0579
SMILES: COC1=C(C=C2C(=C1)C=CC(=O)O2)OC
InChI: InChI=1S/C11H10O4/c1-13-9-5-7-3-4-11(12)15-8(7)6-10(9)14-2/h3-6H,1-2H3
Instrument: LTQ Orbitrap XL, Thermo Scientfic; Dionex Ultimate 300
Instrument type: LC-ESI-ITFT
Ms type: MS2
Ion mode: POSITIVE
Ionization: ESI
Collision energy: 45eV
Column name: Alltima C18
Retention time: 18.11 min
Base peak: 207.0632
Precursor m/z: 207.0632
Precursor type: [M+H]+
m/z	relative intensity
93.0192	15
117.9625	48
134.8906	89
146.9088	999
161.0459	49
175.9914	57
180.0874	87
