Mass spectrum: Isoginkgetin; LC-ESI-QFT; MS2; CE: 15,30,45 (NCE);  [M-H]-
Name: Isoginkgetin
Class: NA
Formula: C32H22O10
Exact mass: 566.1213
SMILES: COC1=CC=C(C=C1)C1=CC(=O)C2=C(O)C=C(O)C(=C2O1)C1=C(OC)C=CC(=C1)C1=CC(=O)C2=C(O)C=C(O)C=C2O1
InChI: InChI=1S/C32H22O10/c1-39-18-6-3-15(4-7-18)26-14-24(38)31-22(36)12-21(35)29(32(31)42-26)19-9-16(5-8-25(19)40-2)27-13-23(37)30-20(34)10-17(33)11-28(30)41-27/h3-14,33-36H,1-2H3
Instrument: QE Focus, Thermo Scientfic; UPLC I-Class, Waters
Instrument type: LC-ESI-QFT
Ms type: MS2
Ion mode: NEGATIVE
Ionization: ESI
Collision energy: 15,30,45 (NCE)
Column name: Acquity CSHC18
Retention time: 3.725 min
Base peak: 565.1144
Precursor m/z: 565.1144
Precursor type: [M-H]-
Precursor intensity: 9364162
m/z	relative intensity
83.0128	28
107.0124	215
330.7147	28
374.0438	999
501.0591	49
518.0638	220
