Mass spectrum: Citrulline; LC-ESI-ITFT; MS2; CE: 60;  [M-H]-
Name: Citrulline
Class: Organic acids and derivatives; Carboxylic acids and derivatives; Amino acids, peptides, and analogues
Formula: C6H13N3O3
Exact mass: 175.09569
SMILES: N[C@@H](CCCNC(N)=O)C(O)=O
InChI: InChI=1S/C6H13N3O3/c7-4(5(10)11)2-1-3-9-6(8)12/h4H,1-3,7H2,(H,10,11)(H3,8,9,12)/t4-/m0/s1
Instrument: Thermo Scientific Q-Exactive Focus
Instrument type: LC-ESI-ITFT
Ms type: MS2
Ion mode: NEGATIVE
Ionization: ESI
Collision energy: 60
Column name: Acquity CSHC18
Retention time: 2.031 min
Base peak: 174.08841
Precursor m/z: 174.08841
Precursor type: [M-H]-
m/z	relative intensity
60.1848	650
67.5743	616
90.9701	999
97.3051	665
103.2755	615
108.3138	636
115.8426	627
122.8428	639
152.5029	670
187.742	631
