Mass spectrum: Gibberellin A7; LC-ESI-QTOF; MS2; CE: -10, -35, -60V;  [M-H]-
Name: Gibberellin A7
Class: NA
Formula: C19H22O5
Exact mass: 330.1467
SMILES: CC12C(C=CC3(C1C(C45C3CCC(C4)C(=C)C5)C(=O)O)OC2=O)O
InChI: InChI=1S/C19H22O5/c1-9-7-18-8-10(9)3-4-11(18)19-6-5-12(20)17(2,16(23)24-19)14(19)13(18)15(21)22/h5-6,10-14,20H,1,3-4,7-8H2,2H3,(H,21,22)
Instrument: TripleToF 5600; Sciex
Instrument type: LC-ESI-QTOF
Ms type: MS2
Ion mode: NEGATIVE
Ionization: ESI
Collision energy: -10, -35, -60V
Column name: Acquity CSHC18
Retention time: 15.924 min
Base peak: 329.1394
Precursor m/z: 329.1394
Precursor type: [M-H]-
Precursor intensity: 1741093
m/z	relative intensity
71.0491	22
73.0297	43
141.0708	17
155.0777	8
155.0883	313
157.0653	9
157.1008	14
167.0892	16
169.0677	17
171.08	13
173.0967	31
179.0874	100
181.1032	54
183.0844	37
183.1169	30
185.134	80
193.103	205
195.0835	89
195.117	17
196.0884	12
197.1336	28
201.1298	23
205.1054	25
207.1179	61
209.0995	34
211.115	576
219.109	13
219.1194	38
221.1386	129
222.4484	14
223.1522	999
224.155	48
237.129	168
239.1463	85
241.1612	202
253.1269	9
255.1073	151
257.1588	12
267.1424	210
285.1497	122
301.1494	6
311.1281	26
329.1332	134
329.1435	294
