Mass spectrum: 3-Hydroxyanthranilic acid; LC-ESI-ITFT; MS2; CE: 100;  [M+H]+
Name: 3-Hydroxyanthranilic acid
Class: Benzenoids; Benzene and substituted derivatives; Benzoic acids and derivatives
Formula: C7H7NO3
Exact mass: 153.04259
SMILES: NC1=C(O)C=CC=C1C(O)=O
InChI: InChI=1S/C7H7NO3/c8-6-4(7(10)11)2-1-3-5(6)9/h1-3,9H,8H2,(H,10,11)
Instrument: Thermo Scientific Q-Exactive Focus
Instrument type: LC-ESI-ITFT
Ms type: MS2
Ion mode: POSITIVE
Ionization: ESI
Collision energy: 100
Column name: Acquity CSHC18
Retention time: 2.570 min
Base peak: 154.04987
Precursor m/z: 154.04987
Precursor type: [M+H]+
m/z	relative intensity
50.0157	530
51.0235	225
52.0187	324
53.0028	999
54.0344	109
61.0078	414
62.0156	813
63.0234	174
115.9107	86
169.0562	88
