Mass spectrum: Scopolin; LC-ESI-ITFT; MS2; CE: 45eV;  [M+H]+
Name: Scopolin
Class: coumarin
Formula: C16H18O9
Exact mass: 354.0951
SMILES: COC1=C(C=C2C(=C1)C=CC(=O)O2)OC3C(C(C(C(O3)CO)O)O)O
InChI: InChI=1S/C16H18O9/c1-22-9-4-7-2-3-12(18)23-8(7)5-10(9)24-16-15(21)14(20)13(19)11(6-17)25-16/h2-5,11,13-17,19-21H,6H2,1H3
Instrument: LTQ Orbitrap XL, Thermo Scientfic; Dionex Ultimate 300
Instrument type: LC-ESI-ITFT
Ms type: MS2
Ion mode: POSITIVE
Ionization: ESI
Collision energy: 45eV
Column name: Alltima C18
Retention time: 7.82 min
Base peak: 355.1025
Precursor m/z: 355.1025
Precursor type: [M+H]+
m/z	relative intensity
126.9823	109
161.0688	79
178.0485	999
285.3691	69
