Mass spectrum: TRANS-ACONITATE; LC-ESI-QFT; MS2; CE: 30eV;  [M+H]+
Name: TRANS-ACONITATE
Class: NA
Formula: C6H6O6
Exact mass: 174.01644
SMILES: OC(=O)C\C(=C/C(O)=O)C(O)=O
InChI: InChI=1S/C6H6O6/c7-4(8)1-3(6(11)12)2-5(9)10/h1H,2H2,(H,7,8)(H,9,10)(H,11,12)/b3-1+
Instrument: Q-Exactive Orbitrap, Thermo Scientfic; Ultimate 3000 HPLC, Thermo Scientfic
Instrument type: LC-ESI-QFT
Ms type: MS2
Ion mode: POSITIVE
Ionization: ESI
Collision energy: 30eV
Column name: Acquity CSHC18
Retention time: 0.621 min
Base peak: 175.0237
Precursor m/z: 175.0237
Precursor type: [M+H]+
Precursor intensity: 169
m/z	relative intensity
50.815	4
51.6737	4
52.3468	3
52.3482	5
55.0186	11
56.865	4
57.0343	20
60.4102	4
72.0815	6
73.0292	26
74.0608	7
80.833	4
81.5328	4
83.0134	430
84.0168	5
85.0291	9
86.0608	6
88.0222	9
101.0239	999
102.0272	11
110.2895	5
111.0082	25
120.8154	4
129.0186	198
133.4161	5
139.0031	47
140.1073	5
152.4578	4
156.5022	4
156.9946	4
157.0136	101
158.1179	180
158.6704	4
170.3603	5
174.9727	24
175.0244	35
176.1287	9
181.428	5
186.2009	4
