Mass spectrum: Niveusin B-2-methylbutyrate, hemiketal; LC-ESI-ITFT; MS2; CE: 50eV;  [M+H]+
Name: Niveusin B-2-methylbutyrate, hemiketal
Class: Sesquiterpenelactone; Heliangolide
Formula: C20H28O7
Exact mass: 380.1835
SMILES: CC(CC)C(=O)O[C@@H]3C[C@]1(C)CC[C@](O)(O1)C(CO)=C[C@@H]2OC(=O)C(=C)[C@@H]23
InChI: InChI=1S/C20H28O7/c1-5-11(2)17(22)26-15-9-19(4)6-7-20(24,27-19)13(10-21)8-14-16(15)12(3)18(23)25-14/h8,11,14-16,21,24H,3,5-7,9-10H2,1-2,4H3/t11?,14-,15+,16-,19-,20-/m0/s1
Instrument: Q Exactive Plus, ThermoFisher Scientific
Instrument type: LC-ESI-ITFT
Ms type: MS2
Ion mode: POSITIVE
Ionization: ESI
Collision energy: 50eV
Column name: Acquity CSHC18
Retention time: 6.513 min
Base peak: 381.1903
Precursor m/z: 381.1903
Precursor type: [M+H]+
Precursor intensity: 2786951000
m/z	relative intensity
107.0676	337
123.0627	347
147.0622	347
149.0779	433
165.0728	532
171.0995	593
173.078	651
185.0795	743
187.0944	999
