Mass spectrum: 2-Aminobenzoic acid; ESI-TOF; MS2; CE: 0.6458333;  [M+H]+
Name: 2-Aminobenzoic acid
Class: NA
Formula: C7H7NO2
Exact mass: 137.04768
SMILES: C1=CC=C(C(=C1)C(=O)O)N
InChI: InChI=1S/C7H7NO2/c8-6-4-2-1-3-5(6)7(9)10/h1-4H,8H2,(H,9,10)
Instrument: waters xevo g2 TOF
Instrument type: ESI-TOF
Ms type: MS2
Ion mode: POSITIVE
Ionization: ESI
Collision energy: 0.6458333
Column name: Acquity CSHC18
Retention time: 2.127 min
Base peak: 138.05568
Precursor m/z: 138.05568
Precursor type: [M+H]+
m/z	relative intensity
59.0503	1
65.0399	183
66.043	13
73.066	1
83.0862	1
90.0356	1
92.0504	999
93.0435	5
100.9918	8
110.0608	13
120.2703	120
121.0483	86
122.0503	2
131.992	7
145.018	8
146.977	4
154.0653	16
160.9692	18
162.9726	7
166.0336	7
169.0009	2
171.0589	2
176.0023	11
179.0615	5
181.0636	22
182.0508	17
193.0188	1
193.9755	2
207.0746	7
208.0627	17
209.0716	43
223.116	17
224.1193	1
225.0669	1
226.074	10
227.0822	9
241.0949	1
242.0402	1
251.0469	1
254.0682	15
255.0692	5
266.0162	1
271.0498	3
272.0982	1
284.0351	1
285.0822	2
291.0337	1
291.998	2
298.1002	1
310.0031	5
321.0284	1
324.0804	1
345.1504	2
348.051	1
371.9782	4
437.2367	10
488.0413	1
525.2888	7
569.3148	4
