Mass spectrum: N-Acetylglutamic acid; ESI-TOF; MS2; CE: 0.6458333;  [M+H]+
Name: N-Acetylglutamic acid
Class: NA
Formula: C7H11NO5
Exact mass: 189.06372
SMILES: CC(=O)NC(CCC(O)=O)C(O)=O
InChI: InChI=1S/C7H11NO5/c1-4(9)8-5(7(12)13)2-3-6(10)11/h5H,2-3H2,1H3,(H,8,9)(H,10,11)(H,12,13)
Instrument: waters xevo g2 TOF
Instrument type: ESI-TOF
Ms type: MS2
Ion mode: POSITIVE
Ionization: ESI
Collision energy: 0.6458333
Column name: Acquity CSHC18
Retention time: 0.794 min
Base peak: 190.07172
Precursor m/z: 190.07172
Precursor type: [M+H]+
m/z	relative intensity
84.0453	999
121.992	18
124.9916	6
130.0506	54
152.9874	30
155.9752	52
166.0181	60
167.9976	21
170.9983	57
197.9855	49
198.9927	45
200.0007	36
229.0068	7
293.0423	24
293.0443	10
