Mass spectrum: Salicylic acid; LC-ESI-ITFT; MS2; CE: 100;  [M-H]-
Name: Salicylic acid
Class: Benzenoids; Benzene and substituted derivatives; Benzoic acids and derivatives
Formula: C7H6O3
Exact mass: 138.03169
SMILES: OC(=O)C1=CC=CC=C1O
InChI: InChI=1S/C7H6O3/c8-6-4-2-1-3-5(6)7(9)10/h1-4,8H,(H,9,10)
Instrument: Thermo Scientific Q-Exactive Focus
Instrument type: LC-ESI-ITFT
Ms type: MS2
Ion mode: NEGATIVE
Ionization: ESI
Collision energy: 100
Column name: Acquity CSHC18
Retention time: 2.234 min
Base peak: 137.02441
Precursor m/z: 137.02441
Precursor type: [M-H]-
m/z	relative intensity
73.0597	763
79.7369	854
83.6672	818
84.7184	801
92.3929	816
92.5157	999
114.1153	765
125.8529	834
134.9801	818
140.954	763
