Mass spectrum: PGB1; ESI-TOF; MS2; CE: 0.6458333;  [M+H]+
Name: PGB1
Class: NA
Formula: C20H32O4
Exact mass: 336.23006
SMILES: [H]OC(=O)C([H])([H])C([H])([H])C([H])([H])C([H])([H])C([H])([H])C([H])([H])C=1C(=O)C([H])([H])C([H])([H])C=1(C([H])=C([H])C([H])(O[H])C([H])([H])C([H])([H])C([H])([H])C([H])([H])C([H])([H])[H])
InChI: InChI=1S/C20H32O4/c1-2-3-6-9-17(21)14-12-16-13-15-19(22)18(16)10-7-4-5-8-11-20(23)24/h12,14,17,21H,2-11,13,15H2,1H3,(H,23,24)
Instrument: waters xevo g2 TOF
Instrument type: ESI-TOF
Ms type: MS2
Ion mode: POSITIVE
Ionization: ESI
Collision energy: 0.6458333
Column name: Acquity CSHC18
Retention time: 4.792 min
Base peak: 337.23806
Precursor m/z: 337.23806
Precursor type: [M+H]+
m/z	relative intensity
71.0868	147
79.0553	86
81.0711	141
83.0863	59
91.0548	315
93.071	260
95.0869	140
99.0814	302
105.0706	719
106.074	62
107.0866	99
109.0665	52
117.0705	299
121.0655	161
123.0811	82
129.0703	230
131.0863	373
133.0657	316
135.0815	132
141.0698	57
143.0858	232
145.1017	269
147.0813	428
149.0966	53
153.0594	68
157.0985	249
159.1183	999
160.1209	122
161.1322	447
162.1377	47
167.087	74
169.1019	435
171.1173	169
173.1211	93
175.1484	197
177.1275	96
179.091	156
183.1169	47
185.1332	240
187.1125	549
188.0963	51
189.1274	50
191.1446	62
195.1115	86
199.1466	108
203.1444	636
204.1472	96
205.123	237
206.1246	29
209.1337	98
217.1595	85
221.1552	57
255.2107	178
261.0784	52
265.197	142
273.2222	297
275.096	60
277.0839	52
283.2067	443
284.2092	81
291.2325	154
301.217	874
302.2196	209
319.2271	171
320.2303	28
