Mass spectrum: H-Tyr-Leu-OH; LC-ESI-QTOF; MS2; CE: 15.00;  [M]+
Name: H-Tyr-Leu-OH
Class: NA
Formula: C15H22N2O4
Exact mass: 294.1580
SMILES: CC(C)CC(C(=O)O)NC(=O)C(CC1=CC=C(C=C1)O)N
InChI: InChI=1S/C15H22N2O4/c1-9(2)7-13(15(20)21)17-14(19)12(16)8-10-3-5-11(18)6-4-10/h3-6,9,12-13,18H,7-8,16H2,1-2H3,(H,17,19)(H,20,21)
Instrument: Bruker MicrOTOF-Q
Instrument type: LC-ESI-QTOF
Ms type: MS2
Ion mode: NEGATIVE
Ionization: ESI
Collision energy: 15.00
Column name: Acquity CSHC18
Retention time: NA
Base peak: 294.1585
Precursor m/z: 294.1585
Precursor type: [M]+
m/z	relative intensity
107.05	157
130.09	361
141.1	191
187.11	142
232.13	258
249.16	103
293.15	999
294.15	182
