Mass spectrum: 8-Hydroxy kaempferol 3,8-O-dimethylether; LC-ESI-QTOF; MS2; CE: 50eV;  [M-H]-
Name: 8-Hydroxy kaempferol 3,8-O-dimethylether
Class: Flavonol
Formula: C17H14O7
Exact mass: 330.0740
SMILES: COC1=C(C=C(C2=C1OC(=C(C2=O)OC)C3=CC=C(C=C3)O)O)O
InChI: InChI=1S/C17H14O7/c1-22-15-11(20)7-10(19)12-13(21)17(23-2)14(24-16(12)15)8-3-5-9(18)6-4-8/h3-7,18-20H,1-2H3
Instrument: TIMS-TOF Pro, Bruker Daltonik; Elute UHPLC System, Bruker Daltonik
Instrument type: LC-ESI-QTOF
Ms type: MS2
Ion mode: NEGATIVE
Ionization: ESI
Collision energy: 50eV
Column name: Acquity CSHC18
Retention time: 8.505 min
Base peak: 329.0609
Precursor m/z: 329.0609
Precursor type: [M-H]-
Precursor intensity: 2918.31
m/z	relative intensity
160.6858	46
271.0183	59
299.0157	305
314.0373	999
315.044	126
316.0439	84
329.0609	213
