Mass spectrum: L-Allothreonine; ESI-TOF; MS2; CE: 6.0000000;  [M+H]+
Name: L-Allothreonine
Class: NA
Formula: C4H9NO3
Exact mass: 119.05824
SMILES: CC(O)C(N)C(O)=O
InChI: InChI=1S/C4H9NO3/c1-2(6)3(5)4(7)8/h2-3,6H,5H2,1H3,(H,7,8)
Instrument: waters xevo g2 TOF
Instrument type: ESI-TOF
Ms type: MS2
Ion mode: POSITIVE
Ionization: ESI
Collision energy: 6.0000000
Column name: Acquity CSHC18
Retention time: 0.503 min
Base peak: 120.06624
Precursor m/z: 120.06624
Precursor type: [M+H]+
m/z	relative intensity
72.939	11
74.0616	97
98.9634	43
99.9706	177
100.9576	10
101.9411	80
103.0596	23
103.1312	4
119.9771	13
120.0662	999
121.0702	37
131.9515	43
137.9892	412
140.9641	94
142.0484	67
156.9865	3
159.9709	67
163.0324	6
168.9839	48
169.9786	43
173.8725	4
175.9625	24
183.9609	6
186.0476	8
201.0092	9
201.9937	4
203.9843	49
204.991	26
219.99	4
233.044	6
246.8642	27
248.01	44
248.863	5
249.0163	13
258.1713	30
258.8863	21
262.8687	3
269.9907	6
441.3289	4
584.0752	9
