Mass spectrum: Myrcene; APCI-ITFT; MS2; CE: HCD 90;  [M-H]-
Name: Myrcene
Class: NA
Formula: C10H16
Exact mass: 136.12520
SMILES: CC(=CCCC(=C)C=C)C
InChI: InChI=1S/C10H16/c1-5-10(4)8-6-7-9(2)3/h5,7H,1,4,6,8H2,2-3H3
Instrument: Orbitrap Elite
Instrument type: APCI-ITFT
Ms type: MS2
Ion mode: NEGATIVE
Ionization: APCI
Collision energy: HCD 90
Column name: Acquity CSHC18
Retention time: 0.113 min
Base peak: 135.11820
Precursor m/z: 135.11820
Precursor type: [M-H]-
Precursor intensity: 31422.33
m/z	relative intensity
65.0153	5
65.999	2
79.031	3
82.03	2
82.0414	12
83.0254	10
90.0103	13
91.0306	47
92.0143	32
92.0255	131
92.033	7
93.0097	17
93.0176	2
93.0291	3
93.046	38
94.0304	8
94.0413	4
95.0258	2
104.0258	3
104.0385	5
105.0332	7
105.0462	17
106.0173	4
106.0294	3
106.0414	49
107.0122	3
107.0255	77
107.0369	12
107.0445	6
107.0617	14
108.0098	4
108.0203	27
108.029	10
108.0461	14
108.0568	4
116.0262	3
117.0463	22
118.0406	6
119.0255	3
119.0366	3
119.0489	18
120.0328	15
120.0441	31
132.0578	2
133.0408	3
133.0526	7
134.0168	3
134.0363	999
134.0719	64
135.02	138
135.0321	216
135.0563	208
135.067	70
