Mass spectrum: (E)-p-coumaric acid; LC-ESI-QTOF; MS2; CE: 15.00;  [M+H]+
Name: (E)-p-coumaric acid
Class: NA
Formula: C9H8O3
Exact mass: 164.0473
SMILES: C1=CC(=CC=C1C=CC(=O)O)O
InChI: InChI=1S/C9H8O3/c10-8-4-1-7(2-5-8)3-6-9(11)12/h1-6,10H,(H,11,12)
Instrument: Bruker MicrOTOF-Q
Instrument type: LC-ESI-QTOF
Ms type: MS2
Ion mode: POSITIVE
Ionization: ESI
Collision energy: 15.00
Column name: Acquity CSHC18
Retention time: NA
Base peak: 165.0546
Precursor m/z: 165.0546
Precursor type: [M+H]+
m/z	relative intensity
91.0486	1
101.3406	1
110.5484	1
118.0394	1
118.6209	1
118.9877	2
119.0478	452
119.2507	1
119.3382	2
119.3949	1
120.0488	43
120.4246	1
121.0558	1
123.04	16
124.0403	1
146.2961	1
146.353	1
146.4791	1
146.8518	1
146.9091	2
146.9638	3
147.0437	999
147.219	3
147.3046	2
147.3813	2
147.4754	1
147.5459	1
147.6526	1
147.8043	1
147.9378	2
148.0454	104
148.3019	1
148.4445	1
150.0557	2
157.0883	1
163.043	3
165.0585	1
294.2552	1
370.8601	1
385.4318	1
523.1149	1
