Mass spectrum: Creatine; LC-ESI-ITFT; MS2; CE: 30;  [M+H]+
Name: Creatine
Class: Organic acids and derivatives; Carboxylic acids and derivatives; Amino acids, peptides, and analogues
Formula: C4H9N3O2
Exact mass: 131.06948
SMILES: CN(CC(O)=O)C(N)=N
InChI: InChI=1S/C4H9N3O2/c1-7(4(5)6)2-3(8)9/h2H2,1H3,(H3,5,6)(H,8,9)
Instrument: Thermo Scientific Q-Exactive Focus
Instrument type: LC-ESI-ITFT
Ms type: MS2
Ion mode: POSITIVE
Ionization: ESI
Collision energy: 30
Column name: Acquity CSHC18
Retention time: 0.914 min
Base peak: 132.07675
Precursor m/z: 132.07675
Precursor type: [M+H]+
m/z	relative intensity
54.7896	452
71.3084	434
72.0561	999
89.9645	454
90.0553	643
104.8347	428
112.3636	555
127.9449	475
129.4085	491
133.004	432
