Mass spectrum: L-Carnitine; ESI-TOF; MS2; CE: 0.6458333;  [M+H]+
Name: L-Carnitine
Class: NA
Formula: C7H15NO3
Exact mass: 161.10519
SMILES: C[N+](C)(C)CC(O)CC([O-])=O
InChI: InChI=1S/C7H15NO3/c1-8(2,3)5-6(9)4-7(10)11/h6,9H,4-5H2,1-3H3
Instrument: waters xevo g2 TOF
Instrument type: ESI-TOF
Ms type: MS2
Ion mode: POSITIVE
Ionization: ESI
Collision energy: 0.6458333
Column name: Acquity CSHC18
Retention time: 0.499 min
Base peak: 162.11319
Precursor m/z: 162.11319
Precursor type: [M+H]+
m/z	relative intensity
60.0821	60
85.0292	433
86.0323	18
102.092	336
103.0396	875
103.0953	16
104.0431	37
162.113	999
163.1162	82
184.0961	11
376.1297	23
