Mass spectrum: apigenin 4'-methylether; LC-ESI-ITFT; MS2; CE: 0.3;  [M-H]-
Name: apigenin 4'-methylether
Class: flavones
Formula: C16H12O5
Exact mass: 284.0685
SMILES: COC1=CC=C(C=C1)C2=CC(=O)C3=C(C=C(C=C3O2)O)O
InChI: InChI=1S/C16H12O5/c1-20-11-4-2-9(3-5-11)14-8-13(19)16-12(18)6-10(17)7-15(16)21-14/h2-8,17-18H,1H3
Instrument: LTQ-Orbitrap XL hybrid mass spectrometer (Thermo Scientific)
Instrument type: LC-ESI-ITFT
Ms type: MS2
Ion mode: NEGATIVE
Ionization: ESI
Collision energy: 0.3
Column name: Acquity CSHC18
Retention time: 10.946 min
Base peak: 283.0608
Precursor m/z: 283.0608
Precursor type: [M-H]-
Precursor intensity: 10600610
m/z	relative intensity
84.0977	3
86.5264	3
86.7183	3
88.4372	3
88.4856	3
92.9062	3
101.0963	4
101.7266	4
105.6051	3
108.054	4
109.4784	3
110.3183	3
121.9541	4
126.6095	4
127.0125	3
131.4674	3
136.0812	4
136.7938	3
138.6048	3
144.9515	4
153.8696	4
156.216	3
158.8611	4
160.2739	4
171.6793	4
183.781	4
266.1373	5
267.9632	6
267.9742	4
267.9895	4
268.0377	999
268.0963	6
269.0402	11
269.9543	8
283.0609	135
