Mass spectrum: 15?-hydroxycholestene; ESI-TOF; MS2; CE: 6.0000000;  [M+H]+
Name: 15?-hydroxycholestene
Class: NA
Formula: C27H46O2
Exact mass: 402.34978
SMILES: [H]OC3([H])(C2=C1C([H])([H])C([H])([H])C4([H])(C([H])([H])C([H])(O[H])C([H])([H])C([H])([H])C4(C([H])([H])[H])(C1([H])C([H])([H])C([H])([H])C2(C([H])([H])[H])C([H])(C3([H])([H]))C([H])(C([H])([H])[H])C([H])([H])C([H])([H])C([H])([H])C([H])(C([H])([H])[H])C([H])([H])[H])))
InChI: InChI=1S/C27H46O2/c1-17(2)7-6-8-18(3)23-16-24(29)25-21-10-9-19-15-20(28)11-13-26(19,4)22(21)12-14-27(23,25)5/h17-20,22-24,28-29H,6-16H2,1-5H3
Instrument: waters xevo g2 TOF
Instrument type: ESI-TOF
Ms type: MS2
Ion mode: POSITIVE
Ionization: ESI
Collision energy: 6.0000000
Column name: Acquity CSHC18
Retention time: 8.907 min
Base peak: 403.35778
Precursor m/z: 403.35778
Precursor type: [M+H]+
m/z	relative intensity
95.0868	4
109.102	5
147.1178	45
159.1171	14
161.1331	19
187.149	36
193.1949	18
201.1647	40
205.1589	39
213.1655	28
215.1799	17
219.1753	219
220.1788	16
227.1809	9
231.175	180
232.1777	32
233.1898	33
241.1966	19
247.2418	17
255.2111	47
259.2423	130
260.2465	22
271.2451	10
273.2582	172
274.2626	13
285.2579	31
367.3365	999
368.3395	623
369.3437	93
384.3376	20
385.3467	3
386.3504	991
387.3519	69
399.3629	19
