Mass spectrum: Sinapaldehyde; LC-ESI-QTOF; MS2; CE: -10, -35, -60V;  [M-H]-
Name: Sinapaldehyde
Class: NA
Formula: C11H12O4
Exact mass: 208.0736
SMILES: COC1=CC(=CC(=C1O)OC)C=CC=O
InChI: InChI=1S/C11H12O4/c1-14-9-6-8(4-3-5-12)7-10(15-2)11(9)13/h3-7,13H,1-2H3
Instrument: TripleToF 5600; Sciex
Instrument type: LC-ESI-QTOF
Ms type: MS2
Ion mode: NEGATIVE
Ionization: ESI
Collision energy: -10, -35, -60V
Column name: Acquity CSHC18
Retention time: 9.941 min
Base peak: 207.0674
Precursor m/z: 207.0674
Precursor type: [M-H]-
Precursor intensity: 27215.38
m/z	relative intensity
65.0039	14
149.0252	95
177.0095	535
177.0245	536
178.0289	93
191.0943	14
192.0438	566
193.0507	89
195.0702	22
202.11	53
207.0587	999
207.0689	998
