Mass spectrum: Zaluzanin C; LC-ESI-ITFT; MS2; CE: 50eV;  [M+H]+
Name: Zaluzanin C
Class: Sesquiterpenelactone; Guaianolide
Formula: C15H18O3
Exact mass: 246.1256
SMILES: C=C1CC[C@@H]2[C@@H]([C@@H]3[C@H]1C[C@@H](C3=C)O)OC(=O)C2=C
InChI: InChI=1S/C15H18O3/c1-7-4-5-10-8(2)15(17)18-14(10)13-9(3)12(16)6-11(7)13/h10-14,16H,1-6H2/t10-,11-,12-,13-,14-/m0/s1
Instrument: Q Exactive Plus, ThermoFisher Scientific
Instrument type: LC-ESI-ITFT
Ms type: MS2
Ion mode: POSITIVE
Ionization: ESI
Collision energy: 50eV
Column name: Acquity CSHC18
Retention time: 6.275 min
Base peak: 247.1329
Precursor m/z: 247.1329
Precursor type: [M+H]+
Precursor intensity: 16692810
m/z	relative intensity
55.0371	39
69.0524	40
95.0679	45
107.0679	66
109.0467	89
119.0677	92
131.0678	100
133.0831	103
135.0619	105
145.083	117
147.0984	122
159.0995	138
161.0782	232
169.0827	239
173.096	245
181.0829	510
187.0943	524
201.1093	999
