Mass spectrum: 9,10,11-trihydroxyoctadecanoic acid; LC-ESI-QTOF; MS2; CE: 20-40eV;  [M+H]+
Name: 9,10,11-trihydroxyoctadecanoic acid
Class: Fatty acid
Formula: C18H36O5
Exact mass: 332.2563
SMILES: CCCCCCCC(C(C(CCCCCCCC(=O)O)O)O)O
InChI: InChI=1S/C18H36O5/c1-2-3-4-6-9-12-15(19)18(23)16(20)13-10-7-5-8-11-14-17(21)22/h15-16,18-20,23H,2-14H2,1H3,(H,21,22)
Instrument: Impact II, Bruker; Dionex 3000, Thermo Scientific
Instrument type: LC-ESI-QTOF
Ms type: MS2
Ion mode: POSITIVE
Ionization: ESI
Collision energy: 20-40eV
Column name: Acquity CSHC18
Retention time: 12.235 min
Base peak: 333.2628
Precursor m/z: 333.2628
Precursor type: [M+H]+
Precursor intensity: 3905.5
m/z	relative intensity
95.0844	533
97.0993	176
107.0843	156
113.0206	188
165.1281	205
218.1986	188
261.2174	225
279.2308	999
