Mass spectrum: Ginkgolide B; LC-ESI-QFT; MS2; CE: 15,30,45 (NCE);  [M+H]+
Name: Ginkgolide B
Class: NA
Formula: C20H24O10
Exact mass: 424.1369
SMILES: CC1C(=O)OC2C(O)C34C5CC(C(C)(C)C)C33C(O)C(=O)OC3OC4(C(=O)O5)C12O
InChI: InChI=1S/C20H24O10/c1-6-12(23)28-11-9(21)18-8-5-7(16(2,3)4)17(18)10(22)13(24)29-15(17)30-20(18,14(25)27-8)19(6,11)26/h6-11,15,21-22,26H,5H2,1-4H3
Instrument: QE Focus, Thermo Scientfic; UPLC I-Class, Waters
Instrument type: LC-ESI-QFT
Ms type: MS2
Ion mode: POSITIVE
Ionization: ESI
Collision energy: 15,30,45 (NCE)
Column name: Acquity CSHC18
Retention time: 2.065 min
Base peak: 425.1436
Precursor m/z: 425.1436
Precursor type: [M+H]+
Precursor intensity: 3844609
m/z	relative intensity
145.0829	47
173.0778	51
201.073	52
213.1093	60
225.1093	69
229.0674	79
241.1037	88
245.062	95
247.0777	97
269.1003	98
271.1147	99
287.1114	107
289.1251	111
315.1053	140
425.1147	999
