Mass spectrum: Ceramide (d18:1/16:0); LC-ESI-ITFT; MS2; CE: 40;  [M-H]-
Name: Ceramide (d18:1/16:0)
Class: Lipids and lipid-like molecules; Sphingolipids; Ceramides
Formula: C34H67NO3
Exact mass: 537.51210
SMILES: CCCCCCCCCCCCCCCC(=O)N[C@@H](CO)[C@H](O)\C=C\CCCCCCCCCCCCC
InChI: InChI=1S/C34H67NO3/c1-3-5-7-9-11-13-15-17-19-21-23-25-27-29-33(37)32(31-36)35-34(38)30-28-26-24-22-20-18-16-14-12-10-8-6-4-2/h27,29,32-33,36-37H,3-26,28,30-31H2,1-2H3,(H,35,38)/b29-27+/t32-,33+/m0/s1
Instrument: Thermo Scientific Q-Exactive Focus
Instrument type: LC-ESI-ITFT
Ms type: MS2
Ion mode: NEGATIVE
Ionization: ESI
Collision energy: 40
Column name: Acquity CSHC18
Retention time: 1.476 min
Base peak: 536.50482
Precursor m/z: 536.50482
Precursor type: [M-H]-
m/z	relative intensity
112.9844	71
237.222	565
254.2486	161
255.2326	113
263.2377	81
266.2488	62
280.2644	999
281.2119	45
296.2591	104
488.4829	93
