Mass spectrum: Eupatolide; LC-ESI-ITFT; MS2; CE: 50eV;  [M+H]+
Name: Eupatolide
Class: Sesquiterpenelactone; Germacrolide
Formula: C15H20O3
Exact mass: 248.1412
SMILES: C/C/1=C\[C@@H]2[C@@H]([C@@H](C/C(=C/CC1)/C)O)C(=C)C(=O)O2
InChI: InChI=1S/C15H20O3/c1-9-5-4-6-10(2)8-13-14(12(16)7-9)11(3)15(17)18-13/h5,8,12-14,16H,3-4,6-7H2,1-2H3/b9-5+,10-8+/t12-,13-,14-/m1/s1
Instrument: Q Exactive Plus, ThermoFisher Scientific
Instrument type: LC-ESI-ITFT
Ms type: MS2
Ion mode: POSITIVE
Ionization: ESI
Collision energy: 50eV
Column name: Acquity CSHC18
Retention time: 9.161 min
Base peak: 249.1482
Precursor m/z: 249.1482
Precursor type: [M+H]+
Precursor intensity: 340585200
m/z	relative intensity
69.0527	35
81.0524	50
83.068	51
85.0474	54
95.068	76
99.0627	88
107.0677	98
109.0833	108
111.0624	136
119.0677	138
121.0831	170
123.0802	178
133.0827	211
135.0806	222
137.0961	236
145.0826	267
147.099	279
149.0774	296
157.0835	308
159.0995	318
161.0965	321
163.093	328
165.0806	330
171.0993	355
175.1115	418
177.1088	456
185.1163	539
187.1298	609
189.1084	912
203.1246	999
