Mass spectrum: CARNOSINE; LC-ESI-QTOF; MS2; CE: 10;  [M-H]-
Name: CARNOSINE
Class: NA
Formula: C9H14N4O3
Exact mass: 226.10659
SMILES: NCCC(=O)N[C@@H](CC1=CN=CN1)C(O)=O
InChI: InChI=1S/C9H14N4O3/c10-2-1-8(14)13-7(9(15)16)3-6-4-11-5-12-6/h4-5,7H,1-3,10H2,(H,11,12)(H,13,14)(H,15,16)/t7-/m0/s1
Instrument: Agilent 6530Â Q-TOF LC/MS
Instrument type: LC-ESI-QTOF
Ms type: MS2
Ion mode: NEGATIVE
Ionization: ESI
Collision energy: 10
Column name: NA
Retention time: 0.200 min
Base peak: 225.10059
Precursor m/z: 225.10059
Precursor type: [M-H]-
Precursor intensity: 183
m/z	relative intensity
58.0331	94
67.0286	109
80.0398	112
81.0537	155
88.0388	168
93.0503	176
110.0902	201
137.0366	270
154.0803	633
163.1029	634
225.1178	999
