Mass spectrum: 4-HYDROXYBENZOIC ACID; LC-ESI-QTOF; MS2; CE: -10, -35, -60V;  [M-H]-
Name: 4-HYDROXYBENZOIC ACID
Class: NA
Formula: C7H6O3
Exact mass: 138.0317
SMILES: C1=CC(=CC=C1C(=O)O)O
InChI: InChI=1S/C7H6O3/c8-6-3-1-5(2-4-6)7(9)10/h1-4,8H,(H,9,10)
Instrument: TripleToF 5600; Sciex
Instrument type: LC-ESI-QTOF
Ms type: MS2
Ion mode: NEGATIVE
Ionization: ESI
Collision energy: -10, -35, -60V
Column name: Acquity CSHC18
Retention time: 6.673 min
Base peak: 137.0244
Precursor m/z: 137.0244
Precursor type: [M-H]-
Precursor intensity: 194109.1
m/z	relative intensity
65.0424	87
92.7466	16
93.0351	999
94.0385	127
137.0256	586
