Mass spectrum: Capric acid; LC-ESI-QTOF; MS2; CE: 10;  [M-H]-
Name: Capric acid
Class: NA
Formula: C10H20O2
Exact mass: 172.1463
SMILES: CCCCCCCCCC(=O)O
InChI: InChI=1S/C10H20O2/c1-2-3-4-5-6-7-8-9-10(11)12/h2-9H2,1H3,(H,11,12)
Instrument: impact II
Instrument type: LC-ESI-QTOF
Ms type: MS2
Ion mode: NEGATIVE
Ionization: ESI
Collision energy: 10
Column name: Acquity CSHC18
Retention time: 2.168 min
Base peak: 171.1390
Precursor m/z: 171.1390
Precursor type: [M-H]-
m/z	relative intensity
106.9852	110
170.9963	122
171.0459	285
171.1388	999
172.1436	125
