Mass spectrum: CITRATE; LC-ESI-QTOF; MS2; CE: 20;  [M-H]-
Name: CITRATE
Class: NA
Formula: C6H8O7
Exact mass: 192.02700
SMILES: OC(=O)CC(O)(CC(O)=O)C(O)=O
InChI: InChI=1S/C6H8O7/c7-3(8)1-6(13,5(11)12)2-4(9)10/h13H,1-2H2,(H,7,8)(H,9,10)(H,11,12)
Instrument: Agilent 6530Â Q-TOF LC/MS
Instrument type: LC-ESI-QTOF
Ms type: MS2
Ion mode: NEGATIVE
Ionization: ESI
Collision energy: 20
Column name: NA
Retention time: 0.200 min
Base peak: 191.02290
Precursor m/z: 191.02290
Precursor type: [M-H]-
Precursor intensity: 182
m/z	relative intensity
41.0198	211
43.0185	252
57.0414	348
67.0246	454
85.04	530
87.0214	951
111.0254	999
