Mass spectrum: 5-Aminopentanoic acid; ESI-TOF; MS2; CE: 6.0000000;  [M+H]+
Name: 5-Aminopentanoic acid
Class: NA
Formula: C5H11NO2
Exact mass: 117.07898
SMILES: NCCCCC(O)=O
InChI: InChI=1S/C5H11NO2/c6-4-2-1-3-5(7)8/h1-4,6H2,(H,7,8)
Instrument: waters xevo g2 TOF
Instrument type: ESI-TOF
Ms type: MS2
Ion mode: POSITIVE
Ionization: ESI
Collision energy: 6.0000000
Column name: Acquity CSHC18
Retention time: 0.527 min
Base peak: 118.08698
Precursor m/z: 118.08698
Precursor type: [M+H]+
m/z	relative intensity
72.9382	5
83.0501	5
95.9735	6
100.0763	233
101.0603	557
102.0784	31
102.1288	38
118.0869	999
119.09	62
135.9925	8
138.9902	16
140.0679	18
142.9921	37
162.0493	4
170.9942	8
177.0354	3
182.9857	32
200.1296	17
202.0206	5
206.9962	9
213.8879	3
217.0032	8
217.1049	21
236.9388	6
259.125	10
281.0413	1
287.8886	12
288.0769	154
289.0819	35
302.1949	10
310.061	37
405.1567	19
427.1388	47
566.1979	9
