Mass spectrum: Benzamide; LC-ESI-ITFT; MS2; CE: 60;  [M+H]+
Name: Benzamide
Class: Benzenoids; Benzene and substituted derivatives; Benzoic acids and derivatives
Formula: C7H7NO
Exact mass: 121.05276
SMILES: NC(=O)C1=CC=CC=C1
InChI: InChI=1S/C7H7NO/c8-7(9)6-4-2-1-3-5-6/h1-5H,(H2,8,9)
Instrument: Thermo Scientific Q-Exactive Focus
Instrument type: LC-ESI-ITFT
Ms type: MS2
Ion mode: POSITIVE
Ionization: ESI
Collision energy: 60
Column name: Acquity CSHC18
Retention time: 1.213 min
Base peak: 122.06004
Precursor m/z: 122.06004
Precursor type: [M+H]+
m/z	relative intensity
50.0157	636
51.0235	999
53.0391	31
77.0389	29
82.9229	17
95.0494	33
109.5378	15
111.8101	15
117.6982	15
138.6664	17
