Mass spectrum: TREHALOSE; LC-ESI-QTOF; MS2; CE: 10;  [M-H]-
Name: TREHALOSE
Class: NA
Formula: C12H22O11
Exact mass: 342.11621
SMILES: OC[C@H]1O[C@H](O[C@H]2O[C@H](CO)[C@@H](O)[C@H](O)[C@H]2O)[C@H](O)[C@@H](O)[C@@H]1O
InChI: InChI=1S/C12H22O11/c13-1-3-5(15)7(17)9(19)11(21-3)23-12-10(20)8(18)6(16)4(2-14)22-12/h3-20H,1-2H2/t3-,4-,5-,6-,7+,8+,9-,10-,11-,12-/m1/s1
Instrument: Agilent 6530Â Q-TOF LC/MS
Instrument type: LC-ESI-QTOF
Ms type: MS2
Ion mode: NEGATIVE
Ionization: ESI
Collision energy: 10
Column name: NA
Retention time: 0.200 min
Base peak: 341.11246
Precursor m/z: 341.11246
Precursor type: [M-H]-
Precursor intensity: 160
m/z	relative intensity
59.0244	110
71.0182	118
89.0369	134
101.0305	204
113.0275	215
119.0468	300
149.0465	344
161.0475	399
179.0675	613
341.1352	779
342.1157	999
