Mass spectrum: ADP; LC-ESI-QTOF; MS2; CE: 30;  [M-H]-
Name: ADP
Class: NA
Formula: C10H15N5O10P2
Exact mass: 427.0294
SMILES: C1=NC(=C2C(=N1)N(C=N2)C3C(C(C(O3)COP(=O)(O)OP(=O)(O)O)O)O)N
InChI: InChI=1S/C10H15N5O10P2/c11-8-5-9(13-2-12-8)15(3-14-5)10-7(17)6(16)4(24-10)1-23-27(21,22)25-26(18,19)20/h2-4,6-7,10,16-17H,1H2,(H,21,22)(H2,11,12,13)(H2,18,19,20)
Instrument: impact II
Instrument type: LC-ESI-QTOF
Ms type: MS2
Ion mode: NEGATIVE
Ionization: ESI
Collision energy: 30
Column name: Acquity CSHC18
Retention time: 1.875 min
Base peak: 426.0214
Precursor m/z: 426.0214
Precursor type: [M-H]-
m/z	relative intensity
78.9589	999
134.0471	292
158.9253	784
272.9569	107
