Mass spectrum: CYSTINE; LC-ESI-QTOF; MS2; CE: 40;  [M+H]+
Name: CYSTINE
Class: NA
Formula: C6H12N2O4S2
Exact mass: 240.0238
SMILES: N[C@@H](CSSC[C@H](N)C(O)=O)C(O)=O
InChI: InChI=1S/C6H12N2O4S2/c7-3(5(9)10)1-13-14-2-4(8)6(11)12/h3-4H,1-2,7-8H2,(H,9,10)(H,11,12)/t3-,4-/m0/s1
Instrument: Agilent 6530Â Q-TOF LC/MS
Instrument type: LC-ESI-QTOF
Ms type: MS2
Ion mode: POSITIVE
Ionization: ESI
Collision energy: 40
Column name: NA
Retention time: 0.200 min
Base peak: 241.03146
Precursor m/z: 241.03146
Precursor type: [M+H]+
Precursor intensity: 50.5
m/z	relative intensity
43.0531	379
46.0246	134
46.0489	34
47.0376	839
47.0905	49
50.6211	19
58.1506	79
70.7176	14
70.8906	14
73.1588	149
73.9625	44
74.0048	999
74.0675	44
74.3384	9
76.0195	274
81.0515	34
84.9544	224
85.0801	104
91.8353	34
91.9012	9
100.0686	114
100.1618	54
102.9621	99
102.9904	34
106.3399	29
106.7868	144
109.2205	79
112.509	19
116.0301	64
118.0614	44
118.641	144
125.9414	644
137.8866	19
138.7615	119
138.811	29
147.817	134
148.8677	114
152.0116	99
152.0636	184
153.4472	44
159.8528	154
170.5823	109
175.0532	94
175.8655	49
175.9795	9
191.0338	19
201.2073	154
213.175	49
214.7997	24
219.0551	44
221.7228	14
225.8635	59
230.3322	39
231.9315	64
232.7849	169
232.8767	14
234.4868	29
