Mass spectrum: 3-METHOXYTYROSINE; LC-ESI-QTOF; MS2; CE: 10;  [M+H]+
Name: 3-METHOXYTYROSINE
Class: NA
Formula: C10H13NO4
Exact mass: 211.08446
SMILES: COC1=CC(CC(N)C(O)=O)=CC=C1O
InChI: InChI=1S/C10H13NO4/c1-15-9-5-6(2-3-8(9)12)4-7(11)10(13)14/h2-3,5,7,12H,4,11H2,1H3,(H,13,14)
Instrument: Agilent 6530Â Q-TOF LC/MS
Instrument type: LC-ESI-QTOF
Ms type: MS2
Ion mode: POSITIVE
Ionization: ESI
Collision energy: 10
Column name: NA
Retention time: 0.200 min
Base peak: 212.09341
Precursor m/z: 212.09341
Precursor type: [M+H]+
Precursor intensity: 25.5
m/z	relative intensity
65.0599	19
77.0519	19
79.0645	20
91.0692	20
93.0626	20
94.0521	21
95.0636	21
103.0475	22
106.0861	23
107.0564	23
109.0771	23
110.0449	24
116.0495	26
117.0394	27
119.0694	27
121.0917	30
123.0483	32
124.0548	33
125.1007	34
131.0479	34
133.05	35
134.0866	40
135.0672	45
137.0728	51
148.0817	54
149.3288	56
149.7673	63
150.069	63
151.0782	90
153.3107	101
153.6852	118
153.7847	153
154.0762	181
163.0567	194
166.1338	196
166.5149	266
167.0659	302
177.0901	322
195.1181	374
195.3916	428
195.711	776
212.1332	999
