Mass spectrum: 5-Methoxyindole; LC-ESI-QTOF; MS2; CE: 0.00;  [M+H]+
Name: 5-Methoxyindole
Class: NA
Formula: C9H9NO
Exact mass: 147.0684
SMILES: COC1=CC2=C(C=C1)NC=C2
InChI: InChI=1S/C9H9NO/c1-11-8-2-3-9-7(6-8)4-5-10-9/h2-6,10H,1H3
Instrument: Bruker MicrOTOF-Q
Instrument type: LC-ESI-QTOF
Ms type: MS2
Ion mode: POSITIVE
Ionization: ESI
Collision energy: 0.00
Column name: Acquity CSHC18
Retention time: NA
Base peak: 148.0757
Precursor m/z: 148.0757
Precursor type: [M+H]+
m/z	relative intensity
104.0475	3
105.0536	3
116.0473	48
117.0552	205
118.0597	33
119.0627	1
120.0436	4
120.0809	2
121.0626	35
122.0652	3
130.0618	1
132.0426	36
132.975	2
133.0504	999
133.2002	1
133.254	1
133.2989	1
133.3738	1
134.0541	85
135.057	1
146.056	1
147.0662	19
148.0743	413
149.0769	46
