Mass spectrum: Quercetin-3-O-a-D-arabinopyranoside; LC-ESI-ITFT; MS2; CE: 0.3;  [M+H]+
Name: Quercetin-3-O-a-D-arabinopyranoside
Class: flavonol glycosides
Formula: C20H18O11
Exact mass: 434.0849
SMILES: C1=CC(=C(C=C1C2=C(C(=O)C3=C(C=C(C=C3O2)O)O)OC4C(C(C(O4)CO)O)O)O)O
InChI: InChI=1S/C20H18O11/c21-6-13-15(26)17(28)20(30-13)31-19-16(27)14-11(25)4-8(22)5-12(14)29-18(19)7-1-2-9(23)10(24)3-7/h1-5,13,15,17,20-26,28H,6H2
Instrument: LTQ-Orbitrap XL hybrid mass spectrometer (Thermo Scientific)
Instrument type: LC-ESI-ITFT
Ms type: MS2
Ion mode: POSITIVE
Ionization: ESI
Collision energy: 0.3
Column name: Acquity CSHC18
Retention time: 5.587 min
Base peak: 435.0900
Precursor m/z: 435.0900
Precursor type: [M+H]+
Precursor intensity: 5543391
m/z	relative intensity
123.4299	1
136.2758	1
140.5384	1
145.0293	1
151.5073	1
151.6209	1
153.8037	1
156.3919	1
165.2183	1
166.9469	2
199.5951	1
199.6346	1
215.7993	1
225.6308	1
233.8136	1
237.7591	1
255.9502	1
271.5337	1
278.1799	1
278.6248	1
282.1307	1
282.7235	1
284.7261	1
286.7303	1
286.9423	1
287.497	1
296.6062	1
302.7683	1
302.7877	1
302.847	2
302.8643	3
302.8923	2
302.9126	4
302.9446	6
302.976	7
303.0488	999
303.12	6
303.1509	5
303.1779	2
303.1987	3
303.2302	2
303.2614	2
312.8924	1
346.0824	1
351.2544	2
352.6614	1
353.7893	1
369.0619	5
372.5096	1
373.898	2
381.4214	2
387.6663	2
391.7701	2
394.4925	2
398.9448	2
399.0704	12
401.2105	2
404.4071	2
407.9928	2
411.3029	1
414.504	1
414.887	1
417.0798	8
427.4448	2
431.5096	2
