Mass spectrum: Tetradecanoic acid; LC-ESI-QTOF; MS2; CE: 15.00;  [M+H]+
Name: Tetradecanoic acid
Class: NA
Formula: C14H28O2
Exact mass: 228.2089
SMILES: CCCCCCCCCCCCCC(=O)O
InChI: InChI=1S/C14H28O2/c1-2-3-4-5-6-7-8-9-10-11-12-13-14(15)16/h2-13H2,1H3,(H,15,16)
Instrument: Bruker MicrOTOF-Q
Instrument type: LC-ESI-QTOF
Ms type: MS2
Ion mode: POSITIVE
Ionization: ESI
Collision energy: 15.00
Column name: Acquity CSHC18
Retention time: NA
Base peak: 229.2162
Precursor m/z: 229.2162
Precursor type: [M+H]+
m/z	relative intensity
117.0904	79
121.0984	10
121.0987	18
123.1174	28
125.0976	74
131.1051	203
135.1145	175
136.1195	60
139.1121	122
145.1212	154
146.1224	23
149.1325	271
159.1373	133
163.1494	32
163.942	7
167.1402	31
167.1801	33
173.1561	55
191.1779	479
201.1841	52
209.192	73
229.2148	999
230.2153	152
247.2291	32
