Mass spectrum: 7?-hydroxycholestenone; ESI-TOF; MS2; CE: 0.6458333;  [M+H]+
Name: 7?-hydroxycholestenone
Class: NA
Formula: C27H44O2
Exact mass: 400.33413
SMILES: [H]OC2([H])(C([H])([H])C1=C([H])C(=O)C([H])([H])C([H])([H])C1(C([H])([H])[H])C3([H])(C([H])([H])C([H])([H])C4(C([H])([H])[H])(C([H])(C([H])([H])C([H])([H])C4([H])(C23([H])))C([H])(C([H])([H])[H])C([H])([H])C([H])([H])C([H])([H])C([H])(C([H])([H])[H])C([H])([H])[H])))
InChI: InChI=1S/C27H44O2/c1-17(2)7-6-8-18(3)21-9-10-22-25-23(12-14-27(21,22)5)26(4)13-11-20(28)15-19(26)16-24(25)29/h15,17-18,21-25,29H,6-14,16H2,1-5H3
Instrument: waters xevo g2 TOF
Instrument type: ESI-TOF
Ms type: MS2
Ion mode: POSITIVE
Ionization: ESI
Collision energy: 0.6458333
Column name: Acquity CSHC18
Retention time: 9.313 min
Base peak: 401.34213
Precursor m/z: 401.34213
Precursor type: [M+H]+
m/z	relative intensity
71.087	20
81.0725	24
83.0868	32
93.0704	20
95.0864	95
97.0655	252
98.0689	14
105.0704	23
107.0862	40
109.1022	68
111.1174	25
119.0862	41
121.0655	49
123.1176	44
125.0604	37
131.0859	10
135.1167	21
137.1328	14
149.097	95
151.1484	14
163.1121	42
171.1175	35
175.1126	48
177.128	375
178.1324	51
183.1153	17
189.1272	29
191.1444	14
193.1944	29
197.1332	25
203.144	39
205.1952	25
207.2117	61
211.1443	129
211.6453	17
217.1581	34
219.1931	29
224.0136	21
225.1636	25
227.1787	9
229.1595	58
230.1637	10
231.6558	5
240.6619	1
243.174	4
245.1903	13
247.2426	11
253.1958	50
257.187	75
271.2052	61
287.2733	32
295.1942	15
301.2893	9
325.2879	25
341.178	9
365.3207	156
366.3239	45
383.3306	600
384.3335	181
401.3415	999
402.3445	324
402.8043	27
