Mass spectrum: CREATININE; LC-ESI-QTOF; MS2; CE: 20;  [M+H]+
Name: CREATININE
Class: NA
Formula: C4H7N3O
Exact mass: 113.05891
SMILES: CN1CC(=O)N=C1N
InChI: InChI=1S/C4H7N3O/c1-7-2-3(8)6-4(7)5/h2H2,1H3,(H2,5,6,8)
Instrument: Agilent 6530Â Q-TOF LC/MS
Instrument type: LC-ESI-QTOF
Ms type: MS2
Ion mode: POSITIVE
Ionization: ESI
Collision energy: 20
Column name: NA
Retention time: 0.200 min
Base peak: 114.06854
Precursor m/z: 114.06854
Precursor type: [M+H]+
Precursor intensity: 133.5
m/z	relative intensity
42.0365	37
43.0514	39
44.3278	41
57.0452	50
72.0606	61
72.9366	134
86.0843	135
96.0817	384
99.0393	750
114.0926	999
