Mass spectrum: Saponarin; LC-ESI-ITFT; MS2; CE: 45eV;  [M+H]+
Name: Saponarin
Class: Flavonoid
Formula: C27H30O15
Exact mass: 594.1585
SMILES: C1=CC(=CC=C1C2=CC(=O)C3=C(C(=C(C=C3O2)OC4C(C(C(C(O4)CO)O)O)O)C5C(C(C(C(O5)CO)O)O)O)O)O
InChI: InChI=1S/C27H30O15/c28-7-15-19(32)22(35)24(37)26(40-15)18-14(41-27-25(38)23(36)20(33)16(8-29)42-27)6-13-17(21(18)34)11(31)5-12(39-13)9-1-3-10(30)4-2-9/h1-6,15-16,19-20,22-30,32-38H,7-8H2
Instrument: LTQ Orbitrap XL, Thermo Scientfic; Dionex Ultimate 300
Instrument type: LC-ESI-ITFT
Ms type: MS2
Ion mode: POSITIVE
Ionization: ESI
Collision energy: 45eV
Column name: Alltima C18
Retention time: 9.49 min
Base peak: 595.1629
Precursor m/z: 595.1629
Precursor type: [M+H]+
m/z	relative intensity
294.8731	27
337.137	563
367.1658	999
397.2171	403
475.0784	614
523.1739	18
546.5618	9
