Mass spectrum: acyl sugar_S2:10 (5,5); LC-ESI-ITFT; MS2; CE: 35 NCE;  [M+FA-H]-
Name: acyl sugar_S2:10 (5,5)
Class: acyl sugar
Formula: C22H38O13
Exact mass: 510.2312
SMILES: CCC(C)C(=O)OC1C(C(OC(C1OC(=O)CC(C)C)CO)OC2(C(C(C(O2)CO)O)O)CO)O
InChI: InChI=1S/C22H38O13/c1-5-11(4)20(30)33-18-16(28)21(31-13(8-24)17(18)32-14(26)6-10(2)3)35-22(9-25)19(29)15(27)12(7-23)34-22/h10-13,15-19,21,23-25,27-29H,5-9H2,1-4H3
Instrument: LTQ Orbitrap XL, Thermo Scientfic; Aquity (U)HPLC, Waters
Instrument type: LC-ESI-ITFT
Ms type: MS2
Ion mode: NEGATIVE
Ionization: ESI
Collision energy: 35 NCE
Column name: Acquity CSHC18
Retention time: 17.148 min
Base peak: 555.2286
Precursor m/z: 555.2286
Precursor type: [M+FA-H]-
Precursor intensity: 50657.31
m/z	relative intensity
312.2013	64
393.1762	110
508.7235	68
525.5713	999
