Mass spectrum: L-Acetylcarnitine; ESI-TOF; MS2; CE: 0.6458333;  [M+H]+
Name: L-Acetylcarnitine
Class: NA
Formula: C9H17NO4
Exact mass: 203.11576
SMILES: CC(=O)OC(CC([O-])=O)C[N+](C)(C)C
InChI: InChI=1S/C9H17NO4/c1-7(11)14-8(5-9(12)13)6-10(2,3)4/h8H,5-6H2,1-4H3
Instrument: waters xevo g2 TOF
Instrument type: ESI-TOF
Ms type: MS2
Ion mode: POSITIVE
Ionization: ESI
Collision energy: 0.6458333
Column name: Acquity CSHC18
Retention time: 0.572 min
Base peak: 204.12376
Precursor m/z: 204.12376
Precursor type: [M+H]+
m/z	relative intensity
60.0819	7
84.0814	9
85.0292	999
86.0326	47
87.0341	3
99.0452	2
101.9409	6
113.9643	23
129.0654	6
131.9307	1
144.1024	34
145.1057	2
162.113	2
204.1239	75
205.1269	8
226.1066	3
