Mass spectrum: 1-Methylhistidine; ESI-TOF; MS2; CE: 0.6458333;  [M+H]+
Name: 1-Methylhistidine
Class: NA
Formula: C7H11N3O2
Exact mass: 169.08513
SMILES: CN1C=NC(CC(N)C(O)=O)=C1
InChI: InChI=1S/C7H11N3O2/c1-10-3-5(9-4-10)2-6(8)7(11)12/h3-4,6H,2,8H2,1H3,(H,11,12)
Instrument: waters xevo g2 TOF
Instrument type: ESI-TOF
Ms type: MS2
Ion mode: POSITIVE
Ionization: ESI
Collision energy: 0.6458333
Column name: Acquity CSHC18
Retention time: 0.480 min
Base peak: 170.09313
Precursor m/z: 170.09313
Precursor type: [M+H]+
m/z	relative intensity
56.0504	11
68.0504	57
74.9542	10
80.0507	19
81.0459	113
82.0538	38
83.0614	999
84.064	47
86.9532	2
93.0457	38
95.0612	81
96.069	432
97.0764	290
98.08	14
102.0915	4
107.0617	55
109.0766	488
110.08	29
124.0877	219
125.09	259
135.0592	2
145.0176	13
150.9969	8
152.0428	16
153.0662	5
162.0353	7
162.994	26
170.093	155
177.0183	22
179.0146	60
180.022	41
182.0204	9
192.0743	5
194.0722	2
198.0328	3
214.0565	6
246.8646	5
248.008	17
273.0669	36
274.0736	8
285.0669	48
286.074	8
300.097	8
302.1454	64
303.0979	36
305.1166	4
348.0994	13
363.1356	10
370.012	17
371.0861	5
377.1256	13
386.0558	5
393.0959	20
399.1074	13
413.0852	5
415.0794	88
416.083	15
417.0798	15
431.056	7
447.0166	13
561.1642	6
571.1039	20
572.1072	4
584.1595	4
614.0992	4
616.1015	38
617.1012	16
618.1013	16
620.0915	5
807.1674	26
808.1678	10
809.1627	15
