Mass spectrum: Sphingosyl PE (d18:1); ESI-TOF; MS2; CE: 6.0000000;  [M+H]+
Name: Sphingosyl PE (d18:1)
Class: NA
Formula: C20H43N2O5P
Exact mass: 422.29096
SMILES: [H]OC([H])(C([H])=C([H])C([H])([H])C([H])([H])C([H])([H])C([H])([H])C([H])([H])C([H])([H])C([H])([H])C([H])([H])C([H])([H])C([H])([H])C([H])([H])C([H])([H])C([H])([H])[H])C([H])(N([H])[H])C([H])([H])OP(=O)([O-])OC([H])([H])C([H])([H])[N+]([H])([H])[H]
InChI: InChI=1S/C20H43N2O5P/c1-2-3-4-5-6-7-8-9-10-11-12-13-14-15-20(23)19(22)18-27-28(24,25)26-17-16-21/h14-15,19-20,23H,2-13,16-18,21-22H2,1H3,(H,24,25)
Instrument: waters xevo g2 TOF
Instrument type: ESI-TOF
Ms type: MS2
Ion mode: POSITIVE
Ionization: ESI
Collision energy: 6.0000000
Column name: Acquity CSHC18
Retention time: 4.297 min
Base peak: 423.29896
Precursor m/z: 423.29896
Precursor type: [M+H]+
m/z	relative intensity
142.0266	16
179.9731	1
184.074	12
222.1219	2
231.1284	2
243.1458	6
247.2417	6
264.2689	185
265.2721	39
282.2793	166
283.2831	35
284.2851	3
300.2897	2
309.6226	2
362.2455	17
363.2485	3
380.2568	55
381.2582	10
388.2609	29
389.2648	6
400.1927	18
401.1952	9
405.2877	150
406.2903	34
407.2906	2
409.1635	1
418.2033	18
419.2067	2
423.2987	999
424.3014	244
