Mass spectrum: ASPARAGINE; LC-ESI-QTOF; MS2; CE: 20;  [M-H]-
Name: ASPARAGINE
Class: NA
Formula: C4H8N2O3
Exact mass: 132.05349
SMILES: N[C@@H](CC(N)=O)C(O)=O
InChI: InChI=1S/C4H8N2O3/c5-2(4(8)9)1-3(6)7/h2H,1,5H2,(H2,6,7)(H,8,9)/t2-/m0/s1
Instrument: Agilent 6530Â Q-TOF LC/MS
Instrument type: LC-ESI-QTOF
Ms type: MS2
Ion mode: NEGATIVE
Ionization: ESI
Collision energy: 20
Column name: NA
Retention time: 0.200 min
Base peak: 131.04893
Precursor m/z: 131.04893
Precursor type: [M-H]-
Precursor intensity: 148
m/z	relative intensity
41.0109	106
42.0195	134
58.0387	141
70.0386	143
71.0282	206
72.0199	210
113.039	217
114.0227	999
