Mass spectrum: 13,14-dihydro-15-keto Prostaglandin F1-alpha; ESI-TOF; MS2; CE: 0.6458333;  [M+H]+
Name: 13,14-dihydro-15-keto Prostaglandin F1-alpha
Class: NA
Formula: C20H36O5
Exact mass: 356.25627
SMILES: O[C@H]1[C@H](CCC(CCCCC)=O)[C@@H](CCCCCCC(O)=O)[C@@H](O)C1
InChI: InChI=1S/C20H36O5/c1-2-3-6-9-15(21)12-13-17-16(18(22)14-19(17)23)10-7-4-5-8-11-20(24)25/h16-19,22-23H,2-14H2,1H3,(H,24,25)/t16-,17-,18+,19-/m1/s1
Instrument: waters xevo g2 TOF
Instrument type: ESI-TOF
Ms type: MS2
Ion mode: POSITIVE
Ionization: ESI
Collision energy: 0.6458333
Column name: Acquity CSHC18
Retention time: 3.796 min
Base peak: 357.26427
Precursor m/z: 357.26427
Precursor type: [M+H]+
m/z	relative intensity
67.0546	51
69.0687	33
79.0542	178
81.0706	156
91.0548	331
93.071	455
95.0861	143
97.0663	38
99.0813	372
105.0713	495
107.087	224
109.1011	55
119.0869	383
121.102	60
127.112	47
128.0626	32
129.0712	243
130.0764	40
131.0879	266
132.0928	23
133.1016	248
135.0806	25
141.0163	11
143.0858	156
145.1021	288
146.1054	36
147.1178	353
149.1321	28
159.1186	177
161.1323	255
162.1376	19
171.1175	886
172.1213	112
177.1263	27
180.0989	3
180.5988	3
183.1177	37
185.1329	42
187.1494	242
188.1186	3
189.1266	645
190.1298	82
191.1436	80
195.1395	14
196.1081	3
197.1338	42
198.1095	3
201.1638	110
205.1593	126
206.1662	3
207.1387	301
208.1417	3
211.0636	52
233.1555	32
239.1609	3
245.1501	3
249.1813	3
257.2287	93
261.059	84
266.0565	26
267.2074	3
275.2356	8
285.2218	246
286.2233	3
287.2303	3
303.2324	999
304.2348	216
305.2394	3
321.2429	173
322.2476	32
323.2511	3
333.1683	3
339.2533	3
340.2569	3
341.259	3
347.2015	17
359.195	70
