Mass spectrum: Quercetagetin; LC-ESI-QTOF; MS2; CE: 50eV;  [M+H]+
Name: Quercetagetin
Class: Flavonol
Formula: C15H10O8
Exact mass: 318.0376
SMILES: C1=CC(=C(C=C1C2=C(C(=O)C3=C(O2)C=C(C(=C3O)O)O)O)O)O
InChI: InChI=1S/C15H10O8/c16-6-2-1-5(3-7(6)17)15-14(22)13(21)10-9(23-15)4-8(18)11(19)12(10)20/h1-4,16-20,22H
Instrument: TIMS-TOF Pro, Bruker Daltonik; Elute UHPLC System, Bruker Daltonik
Instrument type: LC-ESI-QTOF
Ms type: MS2
Ion mode: POSITIVE
Ionization: ESI
Collision energy: 50eV
Column name: Acquity CSHC18
Retention time: 5.645 min
Base peak: 319.0445
Precursor m/z: 319.0445
Precursor type: [M+H]+
Precursor intensity: 20802.19
m/z	relative intensity
67.0181	19
113.0235	20
137.0122	27
168.5047	13
200.4842	4
227.0317	16
319.002	26
319.0417	999
