Mass spectrum: Quercetagetin 3,3'-dimethyl ether; LC-ESI-QTOF; MS2; CE: 50eV;  [M-H]-
Name: Quercetagetin 3,3'-dimethyl ether
Class: Flavonol
Formula: C17H14O8
Exact mass: 346.0689
SMILES: COC1=C(C=CC(=C1)C2=C(C(=O)C3=C(O2)C=C(C(=C3O)O)O)OC)O
InChI: InChI=1S/C17H14O8/c1-23-10-5-7(3-4-8(10)18)16-17(24-2)15(22)12-11(25-16)6-9(19)13(20)14(12)21/h3-6,18-21H,1-2H3
Instrument: TIMS-TOF Pro, Bruker Daltonik; Elute UHPLC System, Bruker Daltonik
Instrument type: LC-ESI-QTOF
Ms type: MS2
Ion mode: NEGATIVE
Ionization: ESI
Collision energy: 50eV
Column name: Acquity CSHC18
Retention time: 6.650 min
Base peak: 345.0561
Precursor m/z: 345.0561
Precursor type: [M-H]-
Precursor intensity: 110022.4
m/z	relative intensity
65.0016	14
66.0098	4
82.0028	2
87.4519	3
93.0322	8
94.0034	3
95.0105	2
96.9926	6
98.7176	2
106.0035	3
108.0195	3
109.028	9
109.9982	31
111.006	7
114.0416	1
121.0271	27
123.0073	10
124.0799	2
126.2655	1
127.5657	1
128.955	3
131.0476	4
132.0186	2
133.0297	4
134.697	3
136.9849	4
139.0019	4
140.0039	2
143.0482	7
144.0532	1
146.3826	1
147.0415	3
149.0213	19
149.6205	2
149.993	2
150.8613	2
153.2956	3
157.0273	4
158.0346	6
159.0411	12
160.0508	2
161.0218	4
163.0368	3
164.9793	4
165.9874	4
166.9965	4
168.1579	3
169.03	2
171.0429	6
172.1892	2
173.022	7
174.0273	3
175	5
177.699	2
178.6819	3
178.9939	2
180.6071	2
183.6521	1
186.4641	2
187.0372	13
187.5378	1
189.0177	4
191.3617	1
193.9485	1
196.8955	1
199.0452	5
201.0165	2
202.026	3
203.0335	17
213.0162	9
214.0207	3
215.0323	8
217.0044	2
226.4586	1
230.0126	1
241.0119	7
243.0282	4
256.8692	2
258.0127	10
259.0166	5
260.025	3
269.0103	1
273.0362	7
274.0376	1
286.0424	2
287.0166	114
288.0165	5
289.0288	1
292.4189	1
301.0312	19
302.0388	158
302.2087	2
302.4088	2
303.0398	16
308.0337	2
314.0373	2
315.0104	43
315.957	3
329.9023	1
330.0341	541
330.3263	3
330.438	3
330.5226	3
330.9226	1
331.0345	38
331.3157	1
332.0393	7
344.0435	7
344.8189	1
344.9448	2
345.0561	999
345.2641	3
345.352	2
345.4516	3
345.5337	2
