Mass spectrum: 2-Oxoglutaric acid; LC-ESI-QTOF; MS2; CE: 10;  [M-H]-
Name: 2-Oxoglutaric acid
Class: NA
Formula: C5H6O5
Exact mass: 146.0215
SMILES: C(CC(=O)O)C(=O)C(=O)O
InChI: InChI=1S/C5H6O5/c6-3(5(9)10)1-2-4(7)8/h1-2H2,(H,7,8)(H,9,10)
Instrument: impact II
Instrument type: LC-ESI-QTOF
Ms type: MS2
Ion mode: NEGATIVE
Ionization: ESI
Collision energy: 10
Column name: Acquity CSHC18
Retention time: 0.743 min
Base peak: 145.0128
Precursor m/z: 145.0128
Precursor type: [M-H]-
m/z	relative intensity
101.0242	999
145.0128	150
