Mass spectrum: N-ACETYLPHENYLALANINE; LC-ESI-QFT; MS2; CE: 30eV;  [M-H]-
Name: N-ACETYLPHENYLALANINE
Class: NA
Formula: C11H13NO3
Exact mass: 207.08954
SMILES: CC(=O)N[C@@H](CC1=CC=CC=C1)C(O)=O
InChI: InChI=1S/C11H13NO3/c1-8(13)12-10(11(14)15)7-9-5-3-2-4-6-9/h2-6,10H,7H2,1H3,(H,12,13)(H,14,15)/t10-/m0/s1
Instrument: Q-Exactive Orbitrap, Thermo Scientfic; Ultimate 3000 HPLC, Thermo Scientfic
Instrument type: LC-ESI-QFT
Ms type: MS2
Ion mode: NEGATIVE
Ionization: ESI
Collision energy: 30eV
Column name: Acquity CSHC18
Retention time: 6.492 min
Base peak: 206.0823
Precursor m/z: 206.0823
Precursor type: [M-H]-
Precursor intensity: 115
m/z	relative intensity
50.5844	4
52.9293	5
53.5115	4
56.2755	4
58.0283	999
59.0316	8
60.1485	6
67.4948	5
67.9647	4
70.0283	464
71.0316	5
72.0076	50
72.0092	5
72.4711	5
77.5711	5
84.5208	6
90.4501	5
91.0538	965
91.78	5
92.0571	60
92.2827	4
96.0042	4
98.4273	5
98.8672	5
99.1341	5
99.7317	5
103.0539	29
118.9917	8
125.8718	55
139.051	5
147.0439	925
148.0475	49
153.0054	6
160.8402	6
161.8496	6
162.0912	53
165.0678	10
165.0739	260
165.8668	5
206.0816	792
207.0851	76
213.9729	5
