Mass spectrum: DETHIOBIOTIN; LC-ESI-QFT; MS2; CE: 30eV;  [M-H]-
Name: DETHIOBIOTIN
Class: NA
Formula: C10H18N2O3
Exact mass: 214.13174
SMILES: C[C@@H]1NC(=O)N[C@@H]1CCCCCC(O)=O
InChI: InChI=1S/C10H18N2O3/c1-7-8(12-10(15)11-7)5-3-2-4-6-9(13)14/h7-8H,2-6H2,1H3,(H,13,14)(H2,11,12,15)/t7-,8+/m0/s1
Instrument: Q-Exactive Orbitrap, Thermo Scientfic; Ultimate 3000 HPLC, Thermo Scientfic
Instrument type: LC-ESI-QFT
Ms type: MS2
Ion mode: NEGATIVE
Ionization: ESI
Collision energy: 30eV
Column name: Acquity CSHC18
Retention time: 6.705 min
Base peak: 213.1245
Precursor m/z: 213.1245
Precursor type: [M-H]-
Precursor intensity: 101
m/z	relative intensity
58.256	3
58.2716	3
58.5317	3
62.1907	3
64.4168	4
65.0848	4
67.8661	4
68.0733	5
80.1278	4
82.1005	4
91.0015	4
95.6859	5
95.8741	4
96.0804	10
97.5215	4
103.1136	5
123.8763	9
126.0908	8
152.2617	4
169.1335	193
170.1105	9
170.1176	252
170.1371	9
171.1211	9
187.3682	5
213.1238	999
214.1274	87
