Mass spectrum: 2-oleoyl glycerol; ESI-TOF; MS2; CE: 6.0000000;  [M+H]+
Name: 2-oleoyl glycerol
Class: NA
Formula: C21H40O4
Exact mass: 356.29266
SMILES: [H]OC([H])([H])C([H])(OC(=O)C([H])([H])C([H])([H])C([H])([H])C([H])([H])C([H])([H])C([H])([H])C([H])([H])C([H])=C([H])C([H])([H])C([H])([H])C([H])([H])C([H])([H])C([H])([H])C([H])([H])C([H])([H])C([H])([H])[H])C([H])([H])O[H]
InChI: InChI=1S/C21H40O4/c1-2-3-4-5-6-7-8-9-10-11-12-13-14-15-16-17-21(24)25-20(18-22)19-23/h9-10,20,22-23H,2-8,11-19H2,1H3
Instrument: waters xevo g2 TOF
Instrument type: ESI-TOF
Ms type: MS2
Ion mode: POSITIVE
Ionization: ESI
Collision energy: 6.0000000
Column name: Acquity CSHC18
Retention time: 7.893 min
Base peak: 357.30066
Precursor m/z: 357.30066
Precursor type: [M+H]+
m/z	relative intensity
81.0708	13
95.0859	21
97.1015	5
121.1016	46
123.1174	15
131.0021	115
135.1175	34
149.1333	48
151.148	14
163.1489	27
165.1637	11
198.1278	66
198.6304	12
244.1524	47
244.6541	13
247.2431	205
248.2464	72
265.253	999
266.2574	210
267.2606	39
283.264	58
284.2682	21
336.176	26
337.1809	18
339.2583	628
340.2942	217
341.297	59
357.3003	263
358.3039	111
