Mass spectrum: N-ACETYLPHENYLALANINE; LC-ESI-QTOF; MS2; CE: 20;  [M+H]+
Name: N-ACETYLPHENYLALANINE
Class: NA
Formula: C11H13NO3
Exact mass: 207.08954
SMILES: CC(=O)N[C@@H](CC1=CC=CC=C1)C(O)=O
InChI: InChI=1S/C11H13NO3/c1-8(13)12-10(11(14)15)7-9-5-3-2-4-6-9/h2-6,10H,7H2,1H3,(H,12,13)(H,14,15)/t10-/m0/s1
Instrument: Agilent 6530Â Q-TOF LC/MS
Instrument type: LC-ESI-QTOF
Ms type: MS2
Ion mode: POSITIVE
Ionization: ESI
Collision energy: 20
Column name: NA
Retention time: 0.200 min
Base peak: 208.09718
Precursor m/z: 208.09718
Precursor type: [M+H]+
Precursor intensity: 167.5
m/z	relative intensity
43.0288	43
58.0605	44
77.0508	45
79.0533	51
91.0599	60
93.0863	61
103.0841	103
104.0552	124
107.0611	176
118.054	202
120.4104	245
121.0871	305
131.0563	859
166.0804	999
