Mass spectrum: Niacinamide; ESI-TOF; MS2; CE: 6.0000000;  [M+H]+
Name: Niacinamide
Class: NA
Formula: C6H6N2O
Exact mass: 122.04801
SMILES: NC(=O)C1=CN=CC=C1
InChI: InChI=1S/C6H6N2O/c7-6(9)5-2-1-3-8-4-5/h1-4H,(H2,7,9)
Instrument: waters xevo g2 TOF
Instrument type: ESI-TOF
Ms type: MS2
Ion mode: POSITIVE
Ionization: ESI
Collision energy: 6.0000000
Column name: Acquity CSHC18
Retention time: 0.588 min
Base peak: 123.05601
Precursor m/z: 123.05601
Precursor type: [M+H]+
m/z	relative intensity
123.056	999
123.1121	3
123.18	8
123.2566	5
124.0588	66
125.0609	4
344.0208	1
347.0295	1
