Mass spectrum: Ascorbic acid; LC-ESI-ITFT; MS2; CE: 60;  [M-H]-
Name: Ascorbic acid
Class: Organoheterocyclic compounds; Dihydrofurans; Furanones
Formula: C6H8O6
Exact mass: 176.03209
SMILES: [H][C@@]1(OC(=O)C(O)=C1O)[C@@H](O)CO
InChI: InChI=1S/C6H8O6/c7-1-2(8)5-3(9)4(10)6(11)12-5/h2,5,7-10H,1H2/t2-,5+/m0/s1
Instrument: Thermo Scientific Q-Exactive Focus
Instrument type: LC-ESI-ITFT
Ms type: MS2
Ion mode: NEGATIVE
Ionization: ESI
Collision energy: 60
Column name: Acquity CSHC18
Retention time: 1.798 min
Base peak: 175.02481
Precursor m/z: 175.02481
Precursor type: [M-H]-
m/z	relative intensity
66.9542	415
68.997	663
79.605	421
90.9702	713
92.5154	999
95.7345	433
95.9639	424
153.1766	457
155.329	436
160.531	417
