Mass spectrum: SINAPIC ACID; LC-ESI-QTOF; MS2; CE: -10, -35, -60V;  [M-H]-
Name: SINAPIC ACID
Class: NA
Formula: C11H12O5
Exact mass: 224.0685
SMILES: COC1=CC(=CC(=C1O)OC)C=CC(=O)O
InChI: InChI=1S/C11H12O5/c1-15-8-5-7(3-4-10(12)13)6-9(16-2)11(8)14/h3-6,14H,1-2H3,(H,12,13)
Instrument: TripleToF 5600; Sciex
Instrument type: LC-ESI-QTOF
Ms type: MS2
Ion mode: NEGATIVE
Ionization: ESI
Collision energy: -10, -35, -60V
Column name: Acquity CSHC18
Retention time: 9.326 min
Base peak: 223.0602
Precursor m/z: 223.0602
Precursor type: [M-H]-
Precursor intensity: 63349.38
m/z	relative intensity
75.0219	5
87.0487	10
93.0341	122
121.0313	58
134.05	8
148.0152	28
149.025	177
151.0428	7
159.1019	40
163.0397	73
164.0488	194
165.0212	41
179.0717	49
193.013	216
194.0205	25
207.0279	14
208.0365	376
209.0436	43
223.0639	999
