Mass spectrum: Serine; LC-ESI-QTOF; MS2; CE: 15 / 50;  [M-H]-
Name: Serine
Class: NA
Formula: C3H7NO3
Exact mass: 105.04259
SMILES: C(C(C(=O)O)N)O
InChI: InChI=1S/C3H7NO3/c4-2(1-5)3(6)7/h2,5H,1,4H2,(H,6,7)
Instrument: impact II
Instrument type: LC-ESI-QTOF
Ms type: MS2
Ion mode: NEGATIVE
Ionization: ESI
Collision energy: 15 / 50
Column name: Acquity CSHC18
Retention time: 0.720 min
Base peak: 104.03520
Precursor m/z: 104.03520
Precursor type: [M-H]-
m/z	relative intensity
74.0249	999
104.0351	136
