Mass spectrum: 15(R),19(R)-hydroxy Prostaglandin F2-alpha; ESI-TOF; MS2; CE: 0.6458333;  [M+H]+
Name: 15(R),19(R)-hydroxy Prostaglandin F2-alpha
Class: NA
Formula: C20H34O6
Exact mass: 370.23554
SMILES: O[C@@H]1[C@H](C/C=C\CCCC(O)=O)[C@@H](/C=C/[C@H](O)CCC[C@H](O)C)[C@H](O)C1
InChI: InChI=1S/C20H34O6/c1-14(21)7-6-8-15(22)11-12-17-16(18(23)13-19(17)24)9-4-2-3-5-10-20(25)26/h2,4,11-12,14-19,21-24H,3,5-10,13H2,1H3,(H,25,26)/b4-2-,12-11+/t14-,15-,16-,17-,18+,19-/m1/s1
Instrument: waters xevo g2 TOF
Instrument type: ESI-TOF
Ms type: MS2
Ion mode: POSITIVE
Ionization: ESI
Collision energy: 0.6458333
Column name: Acquity CSHC18
Retention time: 2.567 min
Base peak: 371.24354
Precursor m/z: 371.24354
Precursor type: [M+H]+
m/z	relative intensity
81.0701	288
91.0549	400
93.0705	379
99.0818	251
105.0697	539
109.065	102
119.0869	362
121.102	150
128.0214	88
129.0701	822
131.0871	999
133.1012	318
139.9928	148
141.0696	225
143.0256	380
144.0898	80
145.1022	856
147.1178	150
155.0866	639
157.1018	432
159.1167	422
167.0846	176
169.1024	654
171.1173	578
172.1199	70
173.0976	127
181.1011	337
185.1326	253
187.1122	14
197.1316	303
201.127	131
203.1077	14
215.1436	112
217.1207	79
221.1291	217
223.1438	214
236.0477	142
237.1627	181
239.161	69
241.1611	83
253.1956	94
255.174	92
257.1913	14
259.1699	214
273.1857	14
274.1843	14
281.1899	509
282.1927	14
289.216	14
291.1955	14
299.2005	980
300.2047	198
316.1112	105
317.2111	327
318.215	14
319.2176	14
329.1421	274
334.1224	591
335.1732	32
336.2255	14
345.1166	150
347.1526	357
348.1544	106
353.232	14
354.2349	14
362.1171	257
363.1247	480
371.1348	255
373.1674	262
