Mass spectrum: Tryptophan; LC-ESI-QTOF; MS2; CE: 20-40eV;  [M+H]+
Name: Tryptophan
Class: Amino acid
Formula: C11H12N2O2
Exact mass: 204.0899
SMILES: C1=CC=C2C(=C1)C(CC(C(=O)O)(N)[H])=CN2
InChI: InChI=1S/C11H12N2O2/c12-9(11(14)15)5-7-6-13-10-4-2-1-3-8(7)10/h1-4,6,9,13H,5,12H2,(H,14,15)
Instrument: Impact II, Bruker; Dionex 3000, Thermo Scientific
Instrument type: LC-ESI-QTOF
Ms type: MS2
Ion mode: POSITIVE
Ionization: ESI
Collision energy: 20-40eV
Column name: Acquity CSHC18
Retention time: 2.566 min
Base peak: 205.0967
Precursor m/z: 205.0967
Precursor type: [M+H]+
Precursor intensity: 11783.88
m/z	relative intensity
105.0703	24
115.0526	241
116.048	53
116.0631	39
117.0558	329
118.0638	212
130.065	196
132.0789	75
133.0822	27
141.0562	49
142.064	74
143.0719	176
144.0782	149
144.9173	25
146.0589	999
147.0621	99
159.0909	109
170.0603	97
188.07	518
189.0731	101
