Mass spectrum: 2-Hydroxybutyric acid; LC-ESI-ITFT; MS2; CE: 100;  [M-H]-
Name: 2-Hydroxybutyric acid
Class: Organic acids and derivatives; Hydroxy acids and derivatives; Alpha hydroxy acids and derivatives
Formula: C4H8O3
Exact mass: 104.04734
SMILES: CCC(O)C(O)=O
InChI: InChI=1S/C4H8O3/c1-2-3(5)4(6)7/h3,5H,2H2,1H3,(H,6,7)
Instrument: Thermo Scientific Q-Exactive Focus
Instrument type: LC-ESI-ITFT
Ms type: MS2
Ion mode: NEGATIVE
Ionization: ESI
Collision energy: 100
Column name: Acquity CSHC18
Retention time: 2.547 min
Base peak: 103.04007
Precursor m/z: 103.04007
Precursor type: [M-H]-
m/z	relative intensity
63.757	746
65.6737	831
67.0485	814
74.7857	763
75.0892	779
85.0218	873
88.366	999
93.2524	827
116.5193	815
124.3431	869
