Mass spectrum: Nicotianoside XI; LC-ESI-QTOF; MS2; CE: 22.5eV;  [M+NH4]+
Name: Nicotianoside XI
Class: Diterpene
Formula: C41H66O20
Exact mass: 878.4147
SMILES: O[C@@H]1[C@@H](O)[C@H](O)[C@@H](CO)O[C@H]1O[C@](C)(C=C)CC\C=C(/C)CC\C=C(/C)CC\C=C(\C)CO[C@@H]1O[C@H](COC(=O)CC(=O)O)[C@@H](O)[C@H](O)[C@H]1O[C@@H]1O[C@H](CO)[C@@H](O)[C@H](O)[C@H]1O
InChI: InChI=1S/C41H66O20/c1-6-41(5,61-39-36(54)33(51)30(48)25(18-43)58-39)15-9-14-22(3)11-7-10-21(2)12-8-13-23(4)19-56-40-37(60-38-35(53)32(50)29(47)24(17-42)57-38)34(52)31(49)26(59-40)20-55-28(46)16-27(44)45/h6,10,13-14,24-26,29-40,42-43,47-54H,1,7-9,11-12,15-20H2,2-5H3,(H,44,45)/b21-10+,22-14+,23-13-/t24-,25-,26-,29-,30-,31-,32+,33+,34+,35-,36-,37-,38+,39+,40-,41-/m1/s1
Instrument: Impact II qTOF
Instrument type: LC-ESI-QTOF
Ms type: MS2
Ion mode: POSITIVE
Ionization: ESI
Collision energy: 22.5eV
Column name: Acquity CSH C18 column (particle size 1.7 μm, column length 2.1 × 50 mm) (Waters)
Retention time: 19.6 min
Base peak: 896.4499
Precursor m/z: 896.4499
Precursor type: [M+NH4]+
m/z	relative intensity
215.1798	53
249.0606	256
271.2414	999
289.2517	128
375.0908	99
393.1028	193
411.1133	711
412.1164	108
537.3064	44
896.4499	712
