Mass spectrum: Umbelliferone; LC-ESI-QTOF; MS2; CE: 50eV;  [M+H]+
Name: Umbelliferone
Class: Coumarin
Formula: C9H6O3
Exact mass: 162.0317
SMILES: C1=CC(=CC2=C1C=CC(=O)O2)O
InChI: InChI=1S/C9H6O3/c10-7-3-1-6-2-4-9(11)12-8(6)5-7/h1-5,10H
Instrument: TIMS-TOF Pro, Bruker Daltonik; Elute UHPLC System, Bruker Daltonik
Instrument type: LC-ESI-QTOF
Ms type: MS2
Ion mode: POSITIVE
Ionization: ESI
Collision energy: 50eV
Column name: Acquity CSHC18
Retention time: 5.283 min
Base peak: 163.0394
Precursor m/z: 163.0394
Precursor type: [M+H]+
Precursor intensity: 117302.3
m/z	relative intensity
39.0233	10
47.9268	6
50.0151	22
51.0233	54
52.0244	8
53.0005	5
55.0176	28
65.0397	43
68.9982	14
77.0278	21
78.0421	13
89.0176	4
91.0545	234
92.058	16
95.0504	16
105.0436	18
107.0352	37
107.05	999
108.0521	36
118.0396	5
119.0485	404
120.0512	16
134.0359	8
135.0444	55
163.0374	256
