Mass spectrum: Anthocyanin.A8; LC-ESI-ITFT; MS2; CE: 30;  [M]+
Name: Anthocyanin.A8
Class: NA
Formula: [C50H57O30]+
Exact mass: 1137.2929
SMILES: C1C(C(C(C(O1)OC2C(C(C(OC2OC3=C([O+]=C4C=C(C=C(C4=C3)OC5C(C(C(C(O5)COC(=O)CC(=O)O)O)O)O)O)C6=CC(=C(C=C6)O)O)COC(=O)C=CC7=CC=C(C=C7)OC8C(C(C(C(O8)CO)O)O)O)O)O)O)O)O
InChI: InChI=1S/C50H56O30/c51-14-29-36(61)39(64)43(68)48(77-29)73-21-5-1-18(2-6-21)3-8-33(58)70-16-31-38(63)41(66)46(80-47-42(67)35(60)25(55)15-72-47)50(79-31)76-28-12-22-26(74-45(28)19-4-7-23(53)24(54)9-19)10-20(52)11-27(22)75-49-44(69)40(65)37(62)30(78-49)17-71-34(59)13-32(56)57/h1-12,25,29-31,35-44,46-51,55,60-69H,13-17H2,(H3-,52,53,54,56,57)/p+1
Instrument: q exactive focus thermo
Instrument type: LC-ESI-ITFT
Ms type: MS2
Ion mode: POSITIVE
Ionization: ESI
Collision energy: 30
Column name: Acquity CSHC18
Retention time: 5.905 min
Base peak: 1137.2950
Precursor m/z: 1137.2950
Precursor type: [M]+
Precursor intensity: 774599.3
m/z	relative intensity
110.1012	33
112.0817	49
116.0605	52
117.0538	53
118.0542	92
136.0692	99
146.0889	143
150.0611	253
150.963	295
158.968	296
160.0637	406
162.0358	556
169.9508	647
191.0888	859
224.9029	999
