Mass spectrum: Imidazoleacetic acid; ESI-TOF; MS2; CE: 0.6458333;  [M+H]+
Name: Imidazoleacetic acid
Class: NA
Formula: C5H6N2O2
Exact mass: 126.04293
SMILES: OC(=O)CC1=CN=CN1
InChI: InChI=1S/C5H6N2O2/c8-5(9)1-4-2-6-3-7-4/h2-3H,1H2,(H,6,7)(H,8,9)
Instrument: waters xevo g2 TOF
Instrument type: ESI-TOF
Ms type: MS2
Ion mode: POSITIVE
Ionization: ESI
Collision energy: 0.6458333
Column name: Acquity CSHC18
Retention time: 0.512 min
Base peak: 127.05093
Precursor m/z: 127.05093
Precursor type: [M+H]+
m/z	relative intensity
81.0453	999
82.0482	57
90.9033	12
91.0542	4
99.9695	86
100.932	43
100.992	17
127.0506	73
151.9226	5
151.9235	5
173.8702	13
191.016	7
217.8605	11
246.8628	10
306.0071	1
328.9952	23
