Mass spectrum: 12(13)-EpOME; LC-ESI-QTOF; MS2; CE: 20-40eV;  [M+H]+
Name: 12(13)-EpOME
Class: Fatty acid
Formula: C18H32O3
Exact mass: 296.2351
SMILES: CCCCCC1C(CC(=C(CCCCCCCC(=O)O)[H])[H])O1
InChI: InChI=1S/C18H32O3/c1-2-3-10-13-16-17(21-16)14-11-8-6-4-5-7-9-12-15-18(19)20/h8,11,16-17H,2-7,9-10,12-15H2,1H3,(H,19,20)
Instrument: Impact II, Bruker; Dionex 3000, Thermo Scientific
Instrument type: LC-ESI-QTOF
Ms type: MS2
Ion mode: POSITIVE
Ionization: ESI
Collision energy: 20-40eV
Column name: Acquity CSHC18
Retention time: 22.156 min
Base peak: 297.2409
Precursor m/z: 297.2409
Precursor type: [M+H]+
Precursor intensity: 13799.5
m/z	relative intensity
95.0836	492
97.0998	134
99.0788	999
100.0826	86
105.0703	76
107.0834	142
109.0987	199
119.0841	117
135.1154	222
136.1165	76
145.0996	145
147.1146	359
151.1479	122
153.1277	133
163.1458	162
165.1259	253
166.1658	74
181.1568	140
193.1977	77
243.2098	185
261.2217	147
279.2322	316
297.2386	83
