Mass spectrum: L-Histidine; ESI-TOF; MS2; CE: 0.6458333;  [M+H]+
Name: L-Histidine
Class: NA
Formula: C6H9N3O2
Exact mass: 155.06948
SMILES: NC(CC1=CNC=N1)C(O)=O
InChI: InChI=1S/C6H9N3O2/c7-5(6(10)11)1-4-2-8-3-9-4/h2-3,5H,1,7H2,(H,8,9)(H,10,11)
Instrument: waters xevo g2 TOF
Instrument type: ESI-TOF
Ms type: MS2
Ion mode: POSITIVE
Ionization: ESI
Collision energy: 0.6458333
Column name: Acquity CSHC18
Retention time: 0.477 min
Base peak: 156.07748
Precursor m/z: 156.07748
Precursor type: [M+H]+
m/z	relative intensity
56.051	7
66.0349	7
68.0503	22
81.0455	89
82.0038	125
83.0613	877
84.0642	45
93.0458	733
94.0484	40
95.061	162
95.974	5
98.9636	42
100.9571	20
110.0598	999
111.0748	282
112.957	6
114.9716	12
115.9609	1
119.0523	2
138.0145	25
145.0184	29
148.0191	8
148.9805	50
150.9807	3
151.9795	5
156.1205	127
157.0805	13
160.9897	4
162.9836	37
164.9992	114
166.005	79
168.0088	20
170.0497	4
180.0372	1
182.0005	4
184.0177	9
194.0714	5
198.0468	9
209.9963	6
218.0265	4
245.0357	28
257.0358	46
258.0223	8
262.062	1
272.0684	6
274.0628	120
275.067	43
311.1472	12
317.1035	1
319.0667	4
320.0681	8
321.0758	3
360.0629	9
361.0566	1
364.0582	26
365.0651	28
367.0679	4
373.9888	9
414.9851	2
418.9833	11
528.042	3
529.0569	30
530.0638	6
574.0522	41
575.0555	11
576.0604	9
578.0524	6
