Mass spectrum: Shikimic acid; LC-ESI-QTOF; MS2; CE: 15.00;  [M+Na]+
Name: Shikimic acid
Class: NA
Formula: C7H10O5
Exact mass: 174.0528
SMILES: C1C(C(C(C=C1C(=O)O)O)O)O
InChI: InChI=1S/C7H10O5/c8-4-1-3(7(11)12)2-5(9)6(4)10/h1,4-6,8-10H,2H2,(H,11,12)
Instrument: Bruker MicrOTOF-Q
Instrument type: LC-ESI-QTOF
Ms type: MS2
Ion mode: POSITIVE
Ionization: ESI
Collision energy: 15.00
Column name: Acquity CSHC18
Retention time: NA
Base peak: 197.0420
Precursor m/z: 197.0420
Precursor type: [M+Na]+
m/z	relative intensity
121.0271	259
139.0332	333
162.0543	999
174.9733	283
194.9916	259
