Mass spectrum: thymidine; LC-ESI-QTOF; MS2; CE: -10, -35, -60V;  [M-H]-
Name: thymidine
Class: NA
Formula: C10H14N2O5
Exact mass: 242.0903
SMILES: CC1=CN(C(=O)NC1=O)C2CC(C(O2)CO)O
InChI: InChI=1S/C10H14N2O5/c1-5-3-12(10(16)11-9(5)15)8-2-6(14)7(4-13)17-8/h3,6-8,13-14H,2,4H2,1H3,(H,11,15,16)
Instrument: TripleToF 5600; Sciex
Instrument type: LC-ESI-QTOF
Ms type: MS2
Ion mode: NEGATIVE
Ionization: ESI
Collision energy: -10, -35, -60V
Column name: Acquity CSHC18
Retention time: 2.385 min
Base peak: 241.0857
Precursor m/z: 241.0857
Precursor type: [M-H]-
Precursor intensity: 88282.81
m/z	relative intensity
119.934	103
125.0365	207
190.1163	102
206.9159	105
241.0723	162
241.0811	999
