Mass spectrum: L-threo-dihydrosphingosine (d18:0); ESI-TOF; MS2; CE: 0.6458333;  [M+H]+
Name: L-threo-dihydrosphingosine (d18:0)
Class: NA
Formula: C18H39NO2
Exact mass: 301.29808
SMILES: [H]OC([H])([H])C([H])(N([H])[H])C([H])(O[H])C([H])([H])C([H])([H])C([H])([H])C([H])([H])C([H])([H])C([H])([H])C([H])([H])C([H])([H])C([H])([H])C([H])([H])C([H])([H])C([H])([H])C([H])([H])C([H])([H])C([H])([H])[H]
InChI: InChI=1S/C18H39NO2/c1-2-3-4-5-6-7-8-9-10-11-12-13-14-15-18(21)17(19)16-20/h17-18,20-21H,2-16,19H2,1H3
Instrument: waters xevo g2 TOF
Instrument type: ESI-TOF
Ms type: MS2
Ion mode: POSITIVE
Ionization: ESI
Collision energy: 0.6458333
Column name: Acquity CSHC18
Retention time: 4.318 min
Base peak: 302.30608
Precursor m/z: 302.30608
Precursor type: [M+H]+
m/z	relative intensity
55.0554	5
57.0711	3
60.0458	40
67.0554	42
68.0583	2
69.0708	58
70.0667	21
71.0501	22
79.0548	3
81.0708	137
82.0743	8
83.0864	88
85.1022	15
93.0709	3
95.0866	205
96.0896	16
97.1019	74
98.1036	5
99.082	1
109.1019	96
110.1048	9
111.1173	21
123.1179	29
124.1214	2
125.1326	1
137.1333	7
151.1478	2
158.0142	1
184.2078	1
212.2374	1
226.2523	1
240.27	17
241.2713	2
252.2691	1
254.2851	396
255.2883	78
256.2828	6
266.2849	121
267.2852	27
268.3006	1
279.2009	4
282.2798	9
283.2837	1
284.2954	999
285.2992	215
286.3022	23
287.3035	1
302.3065	176
303.309	37
