Mass spectrum: CYTIDINE; LC-ESI-QTOF; MS2; CE: 20;  [M-H]-
Name: CYTIDINE
Class: NA
Formula: C9H13N3O5
Exact mass: 243.08552
SMILES: NC1=NC(=O)N(C=C1)[C@@H]1O[C@H](CO)[C@@H](O)[C@H]1O
InChI: InChI=1S/C9H13N3O5/c10-5-1-2-12(9(16)11-5)8-7(15)6(14)4(3-13)17-8/h1-2,4,6-8,13-15H,3H2,(H2,10,11,16)/t4-,6-,7-,8-/m1/s1
Instrument: Agilent 6530Â Q-TOF LC/MS
Instrument type: LC-ESI-QTOF
Ms type: MS2
Ion mode: NEGATIVE
Ionization: ESI
Collision energy: 20
Column name: NA
Retention time: 0.200 min
Base peak: 242.08158
Precursor m/z: 242.08158
Precursor type: [M-H]-
Precursor intensity: 197
m/z	relative intensity
40.0189	130
42.0112	149
65.0199	208
67.0352	234
81.0557	297
91.0305	489
109.0539	991
110.0412	999
