Mass spectrum: 4,9-Dihydroxyfuro[3,2-g]chromen-7-one; LC-ESI-ITFT; MS2; CE: 45eV;  [M-H]-
Name: 4,9-Dihydroxyfuro[3,2-g]chromen-7-one
Class: coumarin
Formula: C11H6O5
Exact mass: 218.0215
SMILES: C1=CC(=O)OC2=C1C(=C3C=COC3=C2O)O
InChI: InChI=1S/C11H6O5/c12-7-2-1-5-8(13)6-3-4-15-10(6)9(14)11(5)16-7/h1-4,13-14H
Instrument: LTQ Orbitrap XL, Thermo Scientfic; Dionex Ultimate 300
Instrument type: LC-ESI-ITFT
Ms type: MS2
Ion mode: NEGATIVE
Ionization: ESI
Collision energy: 45eV
Column name: Alltima C18
Retention time: 17.27 min
Base peak: 217.0122
Precursor m/z: 217.0122
Precursor type: [M-H]-
m/z	relative intensity
104.9254	114
128.9685	376
132.8627	262
155.0477	49
160.0954	278
171.0391	131
179.021	49
185.048	999
214.9323	81
