Mass spectrum: glycerate 2-phosphate; LC-ESI-QTOF; MS2; CE: -10, -35, -60V;  [M-H]-
Name: glycerate 2-phosphate
Class: NA
Formula: C3H7O7P
Exact mass: 185.9929
SMILES: C(C(C(=O)O)OP(=O)(O)O)O
InChI: InChI=1S/C3H7O7P/c4-1-2(3(5)6)10-11(7,8)9/h2,4H,1H2,(H,5,6)(H2,7,8,9)
Instrument: TripleToF 5600; Sciex
Instrument type: LC-ESI-QTOF
Ms type: MS2
Ion mode: NEGATIVE
Ionization: ESI
Collision energy: -10, -35, -60V
Column name: Acquity CSHC18
Retention time: 11.175 min
Base peak: 184.9841
Precursor m/z: 184.9841
Precursor type: [M-H]-
Precursor intensity: 43182.81
m/z	relative intensity
78.9585	999
96.9692	99
184.9852	86
