Mass spectrum: Deoxyinosine; LC-ESI-ITFT; MS2; CE: 10;  [M-H]-
Name: Deoxyinosine
Class: Nucleosides, nucleotides, and analogues; Purine nucleosides; Purine 2'-deoxyribonucleosides
Formula: C10H12N4O4
Exact mass: 252.08585
SMILES: OC[C@H]1O[C@H](C[C@@H]1O)N1C=NC2=C1N=CNC2=O
InChI: InChI=1S/C10H12N4O4/c15-2-6-5(16)1-7(18-6)14-4-13-8-9(14)11-3-12-10(8)17/h3-7,15-16H,1-2H2,(H,11,12,17)/t5-,6+,7+/m0/s1
Instrument: Thermo Scientific Q-Exactive Focus
Instrument type: LC-ESI-ITFT
Ms type: MS2
Ion mode: NEGATIVE
Ionization: ESI
Collision energy: 10
Column name: Acquity CSHC18
Retention time: 0.364 min
Base peak: 251.07858
Precursor m/z: 251.07858
Precursor type: [M-H]-
m/z	relative intensity
92.5138	1
103.6985	1
109.4881	1
118.1066	1
135.0301	250
142.0984	1
161.0458	20
201.961	1
237.1373	1
251.0783	999
