Mass spectrum: S-Adenosylhomocysteine; LC-ESI-ITFT; MS2; CE: 100;  [M-H]-
Name: S-Adenosylhomocysteine
Class: Nucleosides, nucleotides, and analogues; 5'-deoxyribonucleosides; 5'-deoxy-5'-thionucleosides
Formula: C14H20N6O5S
Exact mass: 384.12159
SMILES: N[C@@H](CCSC[C@H]1O[C@H]([C@H](O)[C@@H]1O)N1C=NC2=C1N=CN=C2N)C(O)=O
InChI: InChI=1S/C14H20N6O5S/c15-6(14(23)24)1-2-26-3-7-9(21)10(22)13(25-7)20-5-19-8-11(16)17-4-18-12(8)20/h4-7,9-10,13,21-22H,1-3,15H2,(H,23,24)(H2,16,17,18)/t6-,7+,9+,10+,13+/m0/s1
Instrument: Thermo Scientific Q-Exactive Focus
Instrument type: LC-ESI-ITFT
Ms type: MS2
Ion mode: NEGATIVE
Ionization: ESI
Collision energy: 100
Column name: Acquity CSHC18
Retention time: 2.589 min
Base peak: 383.11432
Precursor m/z: 383.11432
Precursor type: [M-H]-
m/z	relative intensity
65.0133	402
66.0085	40
68.0242	83
74.9898	13
80.0241	24
86.9897	37
90.0085	11
92.0242	613
107.0351	999
134.0461	353
