Mass spectrum: 1,2-di-O-octadecyl-sn-glycero-3-phosphocholine; ESI-TOF; MS2; CE: 0.6458333;  [M+H]+
Name: 1,2-di-O-octadecyl-sn-glycero-3-phosphocholine
Class: NA
Formula: C44H92NO6P
Exact mass: 761.66623
SMILES: [H]C([H])([H])C([H])([H])C([H])([H])C([H])([H])C([H])([H])C([H])([H])C([H])([H])C([H])([H])C([H])([H])C([H])([H])C([H])([H])C([H])([H])C([H])([H])C([H])([H])C([H])([H])C([H])([H])C([H])([H])C([H])([H])OC([H])([H])C([H])(OC([H])([H])C([H])([H])C([H])([H])C([H])([H])C([H])([H])C([H])([H])C([H])([H])C([H])([H])C([H])([H])C([H])([H])C([H])([H])C([H])([H])C([H])([H])C([H])([H])C([H])([H])C([H])([H])C([H])([H])C([H])([H])[H])C([H])([H])OP(=O)([O-])OC([H])([H])C([H])([H])[N+](C([H])([H])[H])(C([H])([H])[H])C([H])([H])[H]
InChI: InChI=1S/C44H92NO6P/c1-6-8-10-12-14-16-18-20-22-24-26-28-30-32-34-36-39-48-42-44(43-51-52(46,47)50-41-38-45(3,4)5)49-40-37-35-33-31-29-27-25-23-21-19-17-15-13-11-9-7-2/h44H,6-43H2,1-5H3
Instrument: waters xevo g2 TOF
Instrument type: ESI-TOF
Ms type: MS2
Ion mode: POSITIVE
Ionization: ESI
Collision energy: 0.6458333
Column name: Acquity CSHC18
Retention time: 12.443 min
Base peak: 762.67423
Precursor m/z: 762.67423
Precursor type: [M+H]+
m/z	relative intensity
86.0971	4
104.1074	29
162.9475	5
184.0733	13
274.6729	3
281.0508	1
311.3308	2
371.2772	7
408.7995	2
409.3017	1
445.239	2
715.5305	8
716.5322	4
727.5873	2
752.1113	8
752.6129	12
753.1145	2
762.8526	662
763.6769	999
