Mass spectrum: Phenylalanine; LC-ESI-QTOF; MS2; CE: 60;  [M+H]+
Name: Phenylalanine
Class: NA
Formula: C9H11NO2
Exact mass: 165.07898
SMILES: C1=CC=C(C=C1)CC(C(=O)O)N
InChI: InChI=1S/C9H11NO2/c10-8(9(11)12)6-7-4-2-1-3-5-7/h1-5,8H,6,10H2,(H,11,12)
Instrument: impact II
Instrument type: LC-ESI-QTOF
Ms type: MS2
Ion mode: POSITIVE
Ionization: ESI
Collision energy: 60
Column name: Acquity CSHC18
Retention time: 1.790 min
Base peak: 166.08630
Precursor m/z: 166.08630
Precursor type: [M+H]+
m/z	relative intensity
51.0233	999
53.0391	225
65.0394	210
77.0388	442
91.0544	257
95.0497	168
103.0542	134
105.0451	102
