Mass spectrum: 3,5-DIIODO-L-TYROSINE; LC-ESI-QTOF; MS2; CE: 10;  [M+H]+
Name: 3,5-DIIODO-L-TYROSINE
Class: NA
Formula: C9H9I2NO3
Exact mass: 432.86719
SMILES: [H][C@](N)(CC1=CC(I)=C(O)C(I)=C1)C(O)=O
InChI: InChI=1S/C9H9I2NO3/c10-5-1-4(2-6(11)8(5)13)3-7(12)9(14)15/h1-2,7,13H,3,12H2,(H,14,15)/t7-/m0/s1
Instrument: Agilent 6530Â Q-TOF LC/MS
Instrument type: LC-ESI-QTOF
Ms type: MS2
Ion mode: POSITIVE
Ionization: ESI
Collision energy: 10
Column name: NA
Retention time: 0.200 min
Base peak: 433.87192
Precursor m/z: 433.87192
Precursor type: [M+H]+
Precursor intensity: 75.5
m/z	relative intensity
79.0542	35
107.0581	36
119.1067	36
120.0938	38
135.0902	39
136.0846	39
219.9368	39
233.9521	44
243.9357	47
245.9539	50
259.9579	55
260.9939	57
261.9577	59
271.9296	60
289.9727	66
320.8154	72
370.8479	74
374.8595	76
387.9149	83
388.1632	90
388.4399	112
388.8579	169
398.8439	197
416.2029	229
416.8696	284
433.9137	349
434.2567	461
435.1083	999
