Mass spectrum: Orotic acid; LC-ESI-QTOF; MS2; CE: 10;  [M-H]-
Name: Orotic acid
Class: NA
Formula: C5H4N2O4
Exact mass: 156.0171
SMILES: C1=C(NC(=O)NC1=O)C(=O)O
InChI: InChI=1S/C5H4N2O4/c8-3-1-2(4(9)10)6-5(11)7-3/h1H,(H,9,10)(H2,6,7,8,11)
Instrument: impact II
Instrument type: LC-ESI-QTOF
Ms type: MS2
Ion mode: NEGATIVE
Ionization: ESI
Collision energy: 10
Column name: Acquity CSHC18
Retention time: 1.836 min
Base peak: 155.0090
Precursor m/z: 155.0090
Precursor type: [M-H]-
m/z	relative intensity
111.0198	999
111.0329	70
111.0577	1
111.0676	5
111.0855	10
111.095	11
111.1042	16
111.1202	4
111.1438	1
111.1526	2
111.1637	3
111.1771	1
111.1908	1
111.2023	2
111.2118	2
111.2338	1
111.2424	1
111.2584	1
111.2696	1
111.2995	1
111.3095	1
111.3261	1
111.3383	1
111.3586	2
112.023	69
155.0091	11
156.0127	1
157.1233	2
