Mass spectrum: Quercetin 3-rutinoside; LC-ESI-QTOF; MS2; CE: 50eV;  [M-H]-
Name: Quercetin 3-rutinoside
Class: Flavonol
Formula: C27H30O16
Exact mass: 610.1534
SMILES: CC1C(C(C(C(O1)OCC2C(C(C(C(O2)OC3=C(OC4=CC(=CC(=C4C3=O)O)O)C5=CC(=C(C=C5)O)O)O)O)O)O)O)O
InChI: InChI=1S/C27H30O16/c1-8-17(32)20(35)22(37)26(40-8)39-7-15-18(33)21(36)23(38)27(42-15)43-25-19(34)16-13(31)5-10(28)6-14(16)41-24(25)9-2-3-11(29)12(30)4-9/h2-6,8,15,17-18,20-23,26-33,35-38H,7H2,1H3
Instrument: TIMS-TOF Pro, Bruker Daltonik; Elute UHPLC System, Bruker Daltonik
Instrument type: LC-ESI-QTOF
Ms type: MS2
Ion mode: NEGATIVE
Ionization: ESI
Collision energy: 50eV
Column name: Acquity CSHC18
Retention time: 5.019 min
Base peak: 609.1393
Precursor m/z: 609.1393
Precursor type: [M-H]-
Precursor intensity: 207967.6
m/z	relative intensity
107.0132	1
150.9999	6
152.0071	1
163.0018	1
178.9974	2
179.9987	1
255.0273	1
271.023	3
286.0553	1
292.6451	1
293.0741	1
293.5413	1
294.3983	1
296.811	1
297.9475	1
300.0223	9
301.0309	11
302.0412	1
305.6333	1
315.9231	1
331.0257	1
351.1986	1
545.0632	1
608.7425	1
608.8203	1
608.9351	1
609.046	1
609.1393	999
609.3573	1
609.5273	2
609.6298	2
