Mass spectrum: Sanguinarine; LC-ESI-QTOF; MS2; CE: 17.41;  [M]+
Name: Sanguinarine
Class: NA
Formula: [C20H14NO4]+
Exact mass: 332.0917
SMILES: C[N+]1=C2C(=C3C=CC4=C(C3=C1)OCO4)C=CC5=CC6=C(C=C52)OCO6
InChI: InChI=1S/C20H14NO4/c1-21-8-15-12(4-5-16-20(15)25-10-22-16)13-3-2-11-6-17-18(24-9-23-17)7-14(11)19(13)21/h2-8H,9-10H2,1H3/q+1
Instrument: Bruker MicrOTOF-Q
Instrument type: LC-ESI-QTOF
Ms type: MS2
Ion mode: POSITIVE
Ionization: ESI
Collision energy: 17.41
Column name: Acquity CSHC18
Retention time: NA
Base peak: 332.0917
Precursor m/z: 332.0917
Precursor type: [M]+
m/z	relative intensity
274.0864	23
302.0812	28
304.097	39
317.0686	53
330.0767	78
332.1009	99
333.0969	661
334.0983	999
