Mass spectrum: Nicotianoside VIII; LC-ESI-QTOF; MS2; CE: 22.5eV;  [M+NH4]+
Name: Nicotianoside VIII
Class: Diterpene
Formula: C53H80O30
Exact mass: 1196.4734
SMILES: O=C(O)CC(=O)OC[C@H]1OC(O[C@@H]2[C@@H](O)[C@H](O)[C@@H](COC(=O)CC(=O)O)O[C@H]2OCC(/C)=C\CCC(\C)=C\CCC(\C)=C\CC[C@](C)(O[C@@H]2O[C@H](COC(=O)CC(=O)O)[C@@H](O[C@@H]3O[C@@H](C)[C@H](O)[C@@H](O)[C@H]3O)[C@H](O)[C@H]2O)C=C)[C@H](O)[C@@H](O)[C@@H]1O
InChI: InChI=1S/C53H80O30/c1-7-53(6,83-51-46(72)43(69)47(30(80-51)23-75-36(62)19-33(58)59)81-49-44(70)40(66)37(63)27(5)77-49)16-10-15-25(3)12-8-11-24(2)13-9-14-26(4)20-76-52-48(42(68)39(65)29(79-52)22-74-35(61)18-32(56)57)82-50-45(71)41(67)38(64)28(78-50)21-73-34(60)17-31(54)55/h7,11,14-15,27-30,37-52,63-72H,1,8-10,12-13,16-23H2,2-6H3,(H,54,55)(H,56,57)(H,58,59)/b24-11+,25-15+,26-14-/t27-,28+,29+,30+,37-,38+,39+,40+,41-,42-,43+,44+,45+,46+,47+,48+,49-,50?,51-,52+,53+/m0/s1
Instrument: Impact II qTOF
Instrument type: LC-ESI-QTOF
Ms type: MS2
Ion mode: POSITIVE
Ionization: ESI
Collision energy: 22.5eV
Column name: Acquity CSH C18 column (particle size 1.7 μm, column length 2.1 × 50 mm) (Waters)
Retention time: 20.5 min
Base peak: 1214.5070
Precursor m/z: 1214.5070
Precursor type: [M+NH4]+
m/z	relative intensity
271.2426	125
272.2479	21
417.2988	22
479.1039	47
497.1156	101
498.1186	22
643.1729	38
1214.508	999
