Mass spectrum: N-caffeoyl Putrescine; LC-ESI-ITFT; MS2; CE: 35eV;  [M+H]+
Name: N-caffeoyl Putrescine
Class: Phenolamide
Formula: C13H18N2O3
Exact mass: 250.1317
SMILES: C1=CC(=C(C=C1C=CC(=O)NCCCCN)O)O
InChI: InChI=1S/C13H18N2O3/c14-7-1-2-8-15-13(18)6-4-10-3-5-11(16)12(17)9-10/h3-6,9,16-17H,1-2,7-8,14H2,(H,15,18)
Instrument: LTQ Orbitrap XL, Thermo Scientfic; Dionex Ultimate 300
Instrument type: LC-ESI-ITFT
Ms type: MS2
Ion mode: POSITIVE
Ionization: ESI
Collision energy: 35eV
Column name: Kinetex XB C18 150*2,1 2,6 Âµm, Phenomenex
Retention time: 7.02 min
Base peak: 251.1355
Precursor m/z: 251.1355
Precursor type: [M+H]+
m/z	relative intensity
72.006	3
88.9625	102
97.9013	6
110.8656	1
113.9295	55
114.9189	23
137.9148	17
162.9313	120
179.9728	1
191.9941	66
209.1559	4
233.9991	999
