Mass spectrum: 6-Methoxyluteolin; LC-ESI-QTOF; MS2; CE: 20-40eV;  [M+H]+
Name: 6-Methoxyluteolin
Class: flavonoid
Formula: C16H12O7
Exact mass: 316.0583
SMILES: COC=1C(=CC2=C(C(C=C(C=3C=CC(=C(C3)O)O)O2)=O)C1O)O
InChI: InChI=1S/C16H12O7/c1-22-16-11(20)6-13-14(15(16)21)10(19)5-12(23-13)7-2-3-8(17)9(18)4-7/h2-6,17-18,20-21H,1H3
Instrument: Impact II, Bruker; Dionex 3000, Thermo Scientific
Instrument type: LC-ESI-QTOF
Ms type: MS2
Ion mode: POSITIVE
Ionization: ESI
Collision energy: 20-40eV
Column name: Acquity CSHC18
Retention time: 8.583 min
Base peak: 317.0658
Precursor m/z: 317.0658
Precursor type: [M+H]+
Precursor intensity: 1427.62
m/z	relative intensity
140.0089	126
146.0091	94
168.0064	166
274.0473	119
302.0443	182
303.0482	104
317.065	999
