Mass spectrum: Bisphenol A mono-B-D-glucuronide; ESI-TOF; MS2; CE: 0.6458333;  [M+H]+
Name: Bisphenol A mono-B-D-glucuronide
Class: NA
Formula: C21H24O8
Exact mass: 404.14712
SMILES: CC(C)(C1=CC=C(C=C1)O)C2=CC=C(C=C2)O[C@H]3C(C([C@H](C(O3)C(=O)O)O)O)O
InChI: InChI=1S/C21H24O8/c1-21(2,11-3-7-13(22)8-4-11)12-5-9-14(10-6-12)28-20-17(25)15(23)16(24)18(29-20)19(26)27/h3-10,15-18,20,22-25H,1-2H3,(H,26,27)/t15?,16-,17?,18?,20-/m1/s1
Instrument: waters xevo g2 TOF
Instrument type: ESI-TOF
Ms type: MS2
Ion mode: POSITIVE
Ionization: ESI
Collision energy: 0.6458333
Column name: Acquity CSHC18
Retention time: 2.772 min
Base peak: 405.15512
Precursor m/z: 405.15512
Precursor type: [M+H]+
m/z	relative intensity
98.976	66
107.0496	172
110.9761	63
135.0816	999
136.0848	105
141.0189	42
159.0303	42
181.0134	81
182.051	2
191.0564	2
199.0235	339
213.0915	171
222.0543	49
228.1151	40
231.1013	100
267.0691	205
275.0929	2
285.0397	67
286.0471	71
293.1015	2
294.1251	2
295.1321	2
301.0607	95
305.1209	157
310.0716	2
333.1137	83
351.124	2
369.1367	2
370.1352	2
405.9857	2
422.1819	2
423.1843	2
424.1264	2
424.6307	2
427.1373	528
428.1399	126
429.1429	2
443.1009	182
444.1056	30
458.0697	43
459.073	64
460.0754	2
461.0773	31
489.1063	2
499.0928	2
626.2033	2
626.6999	2
831.2826	2
832.2849	2
863.2152	2
