Mass spectrum: Geranyl-PP; LC-ESI-QTOF; MS2; CE: 15 / 50;  [M-H]-
Name: Geranyl-PP
Class: Isoprenoid phosphates
Formula: C10H20O7P2
Exact mass: 314.0684
SMILES: CC(C)=CCC\C(C)=C\COP(O)(=O)OP(O)(O)=O
InChI: InChI=1S/C10H20O7P2/c1-9(2)5-4-6-10(3)7-8-16-19(14,15)17-18(11,12)13/h5,7H,4,6,8H2,1-3H3,(H,14,15)(H2,11,12,13)/b10-7+
Instrument: impact II
Instrument type: LC-ESI-QTOF
Ms type: MS2
Ion mode: NEGATIVE
Ionization: ESI
Collision energy: 15 / 50
Column name: Acquity CSHC18
Retention time: 0.634 min
Base peak: 313.0572
Precursor m/z: 313.0572
Precursor type: [M-H]-
m/z	relative intensity
78.9597	999
78.9702	34
79	2
79.0257	2
79.9636	2
80.9645	2
157.917	2
158.9245	80
176.9347	1
295.0471	44
296.0494	7
313.0571	45
314.0605	8
