Mass spectrum: O-Arachnidonoyl ethanolamine hydrochloride; ESI-TOF; MS2; CE: 6.0000000;  [M+H]+
Name: O-Arachnidonoyl ethanolamine hydrochloride
Class: NA
Formula: C22H37NO2
Exact mass: 347.28243
SMILES: CCCCCC=CCC=CCC=CCC=CCCCC(=O)NCCO
InChI: InChI=1S/C22H37NO2/c1-2-3-4-5-6-7-8-9-10-11-12-13-14-15-16-17-18-19-22(25)23-20-21-24/h6-7,9-10,12-13,15-16,24H,2-5,8,11,14,17-21H2,1H3,(H,23,25)
Instrument: waters xevo g2 TOF
Instrument type: ESI-TOF
Ms type: MS2
Ion mode: POSITIVE
Ionization: ESI
Collision energy: 6.0000000
Column name: Acquity CSHC18
Retention time: 4.353 min
Base peak: 348.29043
Precursor m/z: 348.29043
Precursor type: [M+H]+
m/z	relative intensity
269.2257	10
287.2378	10
331.2633	35
348.2891	999
349.2932	269
350.2946	35
370.2717	169
371.2775	41
