Mass spectrum: 1,5-Anhydrosorbitol; ESI-TOF; MS2; CE: 0.6458333;  [M+H]+
Name: 1,5-Anhydrosorbitol
Class: NA
Formula: C6H12O5
Exact mass: 164.06847
SMILES: OCC1OCC(O)C(O)C1O
InChI: InChI=1S/C6H12O5/c7-1-4-6(10)5(9)3(8)2-11-4/h3-10H,1-2H2
Instrument: waters xevo g2 TOF
Instrument type: ESI-TOF
Ms type: MS2
Ion mode: POSITIVE
Ionization: ESI
Collision energy: 0.6458333
Column name: Acquity CSHC18
Retention time: 0.574 min
Base peak: 165.07647
Precursor m/z: 165.07647
Precursor type: [M+H]+
m/z	relative intensity
97.9691	999
98.9633	115
98.9756	69
113.9642	204
129.0531	5
135.9925	5
137.9879	5
143.9597	5
154.9671	5
155.9752	12
169.966	127
170.983	5
171.0849	61
172.9768	5
172.9773	5
173.9714	197
184.0501	5
187.0574	312
188.0603	5
199.9779	5
203.023	296
218.9945	156
235.0391	5
249.0291	5
263.9935	5
264.9992	5
265.0006	5
266.0851	5
278.0081	559
279.0137	161
351.1266	5
353.105	5
380.0586	5
382.0561	106
383.0602	5
