Mass spectrum: N-ACETYLTRYPTOPHAN; LC-ESI-QFT; MS2; CE: 30eV;  [M-H]-
Name: N-ACETYLTRYPTOPHAN
Class: NA
Formula: C13H14N2O3
Exact mass: 246.10044
SMILES: CC(=O)N[C@@H](CC1=CNC2=C1C=CC=C2)C(O)=O
InChI: InChI=1S/C13H14N2O3/c1-8(16)15-12(13(17)18)6-9-7-14-11-5-3-2-4-10(9)11/h2-5,7,12,14H,6H2,1H3,(H,15,16)(H,17,18)/t12-/m0/s1
Instrument: Q-Exactive Orbitrap, Thermo Scientfic; Ultimate 3000 HPLC, Thermo Scientfic
Instrument type: LC-ESI-QFT
Ms type: MS2
Ion mode: NEGATIVE
Ionization: ESI
Collision energy: 30eV
Column name: Acquity CSHC18
Retention time: 6.700 min
Base peak: 245.0932
Precursor m/z: 245.0932
Precursor type: [M-H]-
Precursor intensity: 148
m/z	relative intensity
50.0681	2
52.3143	2
58.0283	171
61.9868	3
62.8612	2
63.4712	2
66.7491	3
70.0283	72
72.0075	2
72.0439	116
74.0232	808
75.0266	7
84.044	4
98.0231	170
109.9195	3
111.4842	3
113.5573	3
116.0337	402
116.049	155
116.0533	3
117.0373	6
117.0523	8
125.3436	2
129.7478	3
130.0645	28
140.5409	3
142.0648	32
154.4506	3
156.748	3
159.0914	53
160.8408	7
180.9882	14
183.0917	14
186.055	24
201.1024	113
202.106	7
203.0816	999
204.0852	58
230.0214	3
231.5527	3
245.0928	237
246.0967	25
