Mass spectrum: 11-beta-Prostaglandin F2-alpha Ethanolamide; ESI-TOF; MS2; CE: 0.6458333;  [M+H]+
Name: 11-beta-Prostaglandin F2-alpha Ethanolamide
Class: NA
Formula: C22H39NO5
Exact mass: 397.28282
SMILES: OCCN([H])C(CCC/C=C\C[C@@H]1[C@@H](/C=C/[C@@H](O)CCCCC)[C@@H](O)C[C@@H]1O)=O
InChI: InChI=1S/C22H39NO5/c1-2-3-6-9-17(25)12-13-19-18(20(26)16-21(19)27)10-7-4-5-8-11-22(28)23-14-15-24/h4,7,12-13,17-21,24-27H,2-3,5-6,8-11,14-16H2,1H3,(H,23,28)/b7-4-,13-12+/t17-,18+,19+,20-,21-/m0/s1
Instrument: waters xevo g2 TOF
Instrument type: ESI-TOF
Ms type: MS2
Ion mode: POSITIVE
Ionization: ESI
Collision energy: 0.6458333
Column name: Acquity CSHC18
Retention time: 3.124 min
Base peak: 398.29082
Precursor m/z: 398.29082
Precursor type: [M+H]+
m/z	relative intensity
62.0598	174
67.0546	65
79.0551	99
81.0707	160
91.0551	157
95.0865	103
105.0713	175
107.0868	110
109.1024	72
119.0871	164
121.1018	115
128.0709	145
129.0716	284
131.0881	456
132.0878	30
143.0866	298
144.0833	79
145.1032	308
147.1178	92
149.0952	33
152.1072	21
154.0888	53
155.087	107
157.1019	432
158.105	43
159.117	172
161.0949	48
163.1505	52
167.0856	55
169.1026	246
171.1177	448
173.1328	132
174.1136	89
175.1465	83
181.1025	137
183.117	126
185.133	324
187.1123	144
189.1297	28
195.1176	121
197.1313	73
199.1319	265
200.1145	20
203.1417	50
209.1247	164
211.1465	38
213.1289	123
215.1808	130
222.1451	16
226.0502	27
227.1452	63
229.1956	81
239.181	212
241.1946	949
242.2001	149
243.206	14
245.1873	18
247.2054	62
255.2118	175
256.2217	23
257.1892	124
265.1953	246
273.2198	18
275.1938	17
283.2058	922
284.2104	94
285.211	14
301.215	74
308.2592	73
318.243	197
319.2435	42
336.2567	35
344.2592	937
345.2611	234
346.26	34
355.2225	53
355.7312	19
356.1868	135
357.1927	23
361.17	48
362.2697	173
363.2738	38
374.199	438
376.2443	140
377.2431	142
380.2803	159
381.2816	28
390.1737	999
391.1754	197
392.1734	45
399.7568	30
