Mass spectrum: 3-Methylhistidine; LC-ESI-ITFT; MS2; CE: 60;  [M-H]-
Name: 3-Methylhistidine
Class: Organic acids and derivatives; Carboxylic acids and derivatives; Amino acids, peptides, and analogues
Formula: C7H11N3O2
Exact mass: 169.08513
SMILES: CN1C=NC=C1C[C@H](N)C(O)=O
InChI: InChI=1S/C7H11N3O2/c1-10-4-9-3-5(10)2-6(8)7(11)12/h3-4,6H,2,8H2,1H3,(H,11,12)/t6-/m0/s1
Instrument: Thermo Scientific Q-Exactive Focus
Instrument type: LC-ESI-ITFT
Ms type: MS2
Ion mode: NEGATIVE
Ionization: ESI
Collision energy: 60
Column name: Acquity CSHC18
Retention time: 1.765 min
Base peak: 168.07785
Precursor m/z: 168.07785
Precursor type: [M-H]-
m/z	relative intensity
98.8895	781
109.7911	859
113.304	735
124.5833	783
141.5937	735
153.3248	869
153.7106	838
157.4039	797
174.1278	999
180.0335	797
