Mass spectrum: Anisodamine; LC-ESI-QTOF; MS2; CE: 35eV;  [M+H]+
Name: Anisodamine
Class: Tropane_alkaloid
Formula: C17H23NO4
Exact mass: 305.1627
SMILES: CN1C2CC(CC1C(C2)O)OC(C(CO)C3=CC=CC=C3)=O
InChI: InChI=1S/C17H23NO4/c1-18-12-7-13(9-15(18)16(20)8-12)22-17(21)14(10-19)11-5-3-2-4-6-11/h2-6,12-16,19-20H,7-10H2,1H3
Instrument: maXis impact HD, Bruker; Dionex 3000, Thermo Scientific
Instrument type: LC-ESI-QTOF
Ms type: MS2
Ion mode: POSITIVE
Ionization: ESI
Collision energy: 35eV
Column name: Acquity CSHC18
Retention time: 4.118 min
Base peak: 306.1680
Precursor m/z: 306.1680
Precursor type: [M+H]+
Precursor intensity: 7620.25
m/z	relative intensity
91.0533	105
93.069	268
105.0686	38
120.0776	34
124.1111	999
125.1188	472
131.0454	25
132.9589	28
135.0427	22
141.0709	27
145.0977	24
160.0069	23
166.9774	30
172.9915	28
181.0599	24
194.9556	24
197.8831	23
200.129	120
202.9515	29
214.9123	45
218.9288	29
222.9495	33
231.948	25
