Mass spectrum: 8-iso-17-phenyl trinor Prostaglandin F2-alpha; ESI-TOF; MS2; CE: 6.0000000;  [M+H]+
Name: 8-iso-17-phenyl trinor Prostaglandin F2-alpha
Class: NA
Formula: C23H32O5
Exact mass: 388.22497
SMILES: O[C@@H]1[C@@H](C/C=C\CCCC(O)=O)[C@@H](/C=C/[C@@H](O)CCC2=CC=CC=C2)[C@H](O)C1
InChI: InChI=1S/C23H32O5/c24-18(13-12-17-8-4-3-5-9-17)14-15-20-19(21(25)16-22(20)26)10-6-1-2-7-11-23(27)28/h1,3-6,8-9,14-15,18-22,24-26H,2,7,10-13,16H2,(H,27,28)/b6-1-,15-14+/t18-,19-,20+,21-,22+/m0/s1
Instrument: waters xevo g2 TOF
Instrument type: ESI-TOF
Ms type: MS2
Ion mode: POSITIVE
Ionization: ESI
Collision energy: 6.0000000
Column name: Acquity CSHC18
Retention time: 3.282 min
Base peak: 389.23297
Precursor m/z: 389.23297
Precursor type: [M+H]+
m/z	relative intensity
93.0713	1
115.0551	1
117.0708	73
119.0865	1
128.0646	1
129.0703	1
130.0742	1
131.0865	287
132.0897	24
133.1014	1
141.0721	1
143.0859	1
145.101	1
147.0811	1
155.0882	1
157.1044	4
165.0683	1
166.0764	1
167.0849	1
169.102	1
171.1178	1
179.0972	1
181.1018	1
183.1168	1
185.1334	5
187.0941	24
191.095	6
193.1111	4
195.1146	1
196.0826	81
196.5842	18
203.1439	18
205.1046	32
205.5901	10
207.128	20
208.1234	1
213.1316	7
219.1353	11
221.1325	10
233.1311	1
241.1456	8
245.1168	7
251.1418	10
254.0429	1
271.1483	1
273.1653	10
275.1786	2
289.16	8
291.1756	32
299.1789	32
301.1117	18
317.1906	169
318.1873	30
333.1812	9
335.2012	999
336.2017	185
337.2144	62
338.2173	6
351.1967	21
352.1115	33
353.2111	347
354.2134	84
355.1699	6
365.1404	1
367.2257	45
368.232	7
371.2226	46
380.1143	1
381.115	24
382.1142	7
389.1145	1
391.1596	1
