Mass spectrum: GLYCOCHOLATE; LC-ESI-QFT; MS2; CE: 30eV;  [M-H]-
Name: GLYCOCHOLATE
Class: NA
Formula: C26H43NO6
Exact mass: 465.30904
SMILES: [H][C@@]12CC[C@H]([C@H](C)CCC(=O)NCC(O)=O)[C@@]1(C)[C@@H](O)C[C@@]1([H])[C@@]2([H])[C@H](O)CC2C[C@H](O)CC[C@]12C
InChI: InChI=1S/C26H43NO6/c1-14(4-7-22(31)27-13-23(32)33)17-5-6-18-24-19(12-21(30)26(17,18)3)25(2)9-8-16(28)10-15(25)11-20(24)29/h14-21,24,28-30H,4-13H2,1-3H3,(H,27,31)(H,32,33)/t14-,15?,16-,17-,18+,19+,20-,21+,24+,25+,26-/m1/s1
Instrument: Q-Exactive Orbitrap, Thermo Scientfic; Ultimate 3000 HPLC, Thermo Scientfic
Instrument type: LC-ESI-QFT
Ms type: MS2
Ion mode: NEGATIVE
Ionization: ESI
Collision energy: 30eV
Column name: Acquity CSHC18
Retention time: 9.575 min
Base peak: 464.3018
Precursor m/z: 464.3018
Precursor type: [M-H]-
Precursor intensity: 149
m/z	relative intensity
53.4161	1
54.2733	1
56.3307	2
57.771	1
61.4922	1
62.0158	1
62.2819	1
62.9248	2
64.6324	1
64.7535	2
74.0232	999
75.0201	2
75.0266	5
76.3151	2
77.359	2
80.7872	2
132.2433	2
141.3519	2
155.1938	2
161.4383	2
175.6401	2
198.0524	2
198.9666	2
210.8607	2
221.7856	2
229.3091	2
237.2864	2
271.6376	2
314.2155	2
324.6906	3
400.2858	12
402.3013	76
403.3046	12
420.3112	25
428.1728	2
446.2921	4
465.3052	791
