Mass spectrum: Prostaglandin A2; ESI-TOF; MS2; CE: 0.6458333;  [M+H]+
Name: Prostaglandin A2
Class: NA
Formula: C20H30O4
Exact mass: 334.21441
SMILES: CCCCC[C@@H](/C=C/[C@H]1C=CC(=O)[C@@H]1C/C=C\CCCC(=O)O)O
InChI: InChI=1S/C20H30O4/c1-2-3-6-9-17(21)14-12-16-13-15-19(22)18(16)10-7-4-5-8-11-20(23)24/h4,7,12-18,21H,2-3,5-6,8-11H2,1H3,(H,23,24)/b7-4-,14-12+/t16-,17-,18+/m0/s1
Instrument: waters xevo g2 TOF
Instrument type: ESI-TOF
Ms type: MS2
Ion mode: POSITIVE
Ionization: ESI
Collision energy: 0.6458333
Column name: Acquity CSHC18
Retention time: 3.884 min
Base peak: 335.22241
Precursor m/z: 335.22241
Precursor type: [M+H]+
m/z	relative intensity
79.0548	84
81.0706	99
93.0708	82
97.9698	4
107.0489	37
109.0655	88
115.0548	57
121.032	51
133.1021	59
144.0572	24
154.0768	48
159.0993	999
161.096	22
165.0486	33
167.087	68
168.0932	39
169.0997	276
170.1064	29
171.1173	50
173.0979	86
178.0828	22
178.5851	4
181.0971	36
185.0537	39
189.1257	4
197.0968	104
203.1433	178
215.144	417
216.1457	53
229.1075	38
240.2692	46
244.0156	25
247.0645	233
253.1922	49
259.1308	4
262.0295	79
263.1762	46
279.2306	4
281.191	288
282.1921	42
299.1494	146
300.2015	31
301.211	4
317.2117	40
318.2154	4
319.2164	4
323.2187	29
331.2257	4
332.3303	4
333.337	41
335.2244	4
336.1841	4
336.6866	4
337.1879	4
