Mass spectrum: 11-deoxy Prostaglandin F2-beta; ESI-TOF; MS2; CE: 6.0000000;  [M+H]+
Name: 11-deoxy Prostaglandin F2-beta
Class: NA
Formula: C20H34O4
Exact mass: 338.24571
SMILES: CCCCC[C@H](O)/C=C/[C@H]1CC[C@@H](O)[C@@H]1C/C=C\CCCC(O)=O
InChI: InChI=1S/C20H34O4/c1-2-3-6-9-17(21)14-12-16-13-15-19(22)18(16)10-7-4-5-8-11-20(23)24/h4,7,12,14,16-19,21-22H,2-3,5-6,8-11,13,15H2,1H3,(H,23,24)/b7-4-,14-12+/t16-,17-,18+,19+/m0/s1
Instrument: waters xevo g2 TOF
Instrument type: ESI-TOF
Ms type: MS2
Ion mode: POSITIVE
Ionization: ESI
Collision energy: 6.0000000
Column name: Acquity CSHC18
Retention time: 3.946 min
Base peak: 339.25371
Precursor m/z: 339.25371
Precursor type: [M+H]+
m/z	relative intensity
119.0861	4
131.0861	4
147.1174	1
173.1325	2
175.1491	2
180.0993	21
183.1185	1
187.1127	23
188.1135	1
189.1629	4
191.108	16
201.1273	16
202.1324	2
203.1788	5
205.1228	8
207.1371	2
209.1152	2
215.1456	4
239.1614	4
241.1958	5
243.2114	8
257.2253	7
261.1847	1
267.2114	36
268.2145	4
275.2341	1
277.2197	5
285.2219	251
286.2249	45
287.2241	4
303.2327	999
304.2362	206
305.2382	26
306.2383	1
319.2263	6
321.2434	91
322.2467	16
323.2472	1
340.2143	24
340.7203	10
341.217	2
