Mass spectrum: 3-methoxy Prostaglandin F1-alpha; ESI-TOF; MS2; CE: 0.6458333;  [M+H]+
Name: 3-methoxy Prostaglandin F1-alpha
Class: NA
Formula: C21H38O6
Exact mass: 386.26684
SMILES: O[C@@H]1[C@H](CCCCC(OC)CC(O)=O)[C@@H](/C=C/[C@@H](O)CCCCC)[C@H](O)C1
InChI: InChI=1S/C21H38O6/c1-3-4-5-8-15(22)11-12-18-17(19(23)14-20(18)24)10-7-6-9-16(27-2)13-21(25)26/h11-12,15-20,22-24H,3-10,13-14H2,1-2H3,(H,25,26)/b12-11+/t15-,16?,17+,18+,19-,20+/m0/s1
Instrument: waters xevo g2 TOF
Instrument type: ESI-TOF
Ms type: MS2
Ion mode: POSITIVE
Ionization: ESI
Collision energy: 0.6458333
Column name: Acquity CSHC18
Retention time: 3.417 min
Base peak: 387.27484
Precursor m/z: 387.27484
Precursor type: [M+H]+
m/z	relative intensity
69.0704	63
97.0659	49
105.0709	581
106.0737	45
118.0732	31
119.0863	519
123.1197	60
125.0612	25
130.0778	47
131.0867	999
133.1019	508
135.1183	127
142.0791	49
156.0913	24
160.1217	43
161.1162	20
163.1492	32
166.0896	16
173.1327	331
174.1348	33
175.1494	264
186.1367	45
187.1487	400
193.1238	26
201.1673	292
202.1665	64
215.1811	269
239.1796	149
242.1967	128
243.2028	35
255.2102	98
265.1963	168
266.2072	43
275.1644	39
287.184	252
304.3029	38
312.2199	93
315.2316	81
333.2421	795
347.2184	65
350.1534	234
351.2513	122
360.1385	66
361.1454	54
363.1966	261
364.1855	46
371.167	40
379.1559	314
380.157	83
381.1635	16
387.1656	27
388.2431	53
388.7414	12
