Mass spectrum: Trimethylamine N-oxide; LC-ESI-QTOF; MS2; CE: 15 / 50;  [2M+H]+
Name: Trimethylamine N-oxide
Class: NA
Formula: C3H9NO
Exact mass: 75.06841
SMILES: C[N+](C)(C)[O-]
InChI: InChI=1S/C3H9NO/c1-4(2,3)5/h1-3H3
Instrument: impact II
Instrument type: LC-ESI-QTOF
Ms type: MS2
Ion mode: POSITIVE
Ionization: ESI
Collision energy: 15 / 50
Column name: Acquity CSHC18
Retention time: 0.553 min
Base peak: 151.14440
Precursor m/z: 151.14440
Precursor type: [2M+H]+
m/z	relative intensity
58.066	999
59.0738	314
76.0764	720
