Mass spectrum: L-Phenylalanine; LC-ESI-ITFT; MS2; CE: 10;  [M+H]+
Name: L-Phenylalanine
Class: Organic acids and derivatives; Carboxylic acids and derivatives; Amino acids, peptides, and analogues
Formula: C9H11NO2
Exact mass: 165.07898
SMILES: N[C@@H](CC1=CC=CC=C1)C(O)=O
InChI: InChI=1S/C9H11NO2/c10-8(9(11)12)6-7-4-2-1-3-5-7/h1-5,8H,6,10H2,(H,11,12)/t8-/m0/s1
Instrument: Thermo Scientific Q-Exactive Focus
Instrument type: LC-ESI-ITFT
Ms type: MS2
Ion mode: POSITIVE
Ionization: ESI
Collision energy: 10
Column name: Acquity CSHC18
Retention time: 0.348 min
Base peak: 166.08626
Precursor m/z: 166.08626
Precursor type: [M+H]+
m/z	relative intensity
93.0702	2
95.0494	1
101.6425	1
103.0545	28
107.0494	13
112.34	1
120.081	999
131.0492	35
149.0597	18
166.0862	54
