Mass spectrum: Tryptamine; LC-ESI-ITFT; MS2; CE: 10;  [M+H]+
Name: Tryptamine
Class: Organoheterocyclic compounds; Indoles and derivatives; Tryptamines and derivatives
Formula: C10H12N2
Exact mass: 160.10005
SMILES: NCCC1=CNC2=CC=CC=C12
InChI: InChI=1S/C10H12N2/c11-6-5-8-7-12-10-4-2-1-3-9(8)10/h1-4,7,12H,5-6,11H2
Instrument: Thermo Scientific Q-Exactive Focus
Instrument type: LC-ESI-ITFT
Ms type: MS2
Ion mode: POSITIVE
Ionization: ESI
Collision energy: 10
Column name: Acquity CSHC18
Retention time: 0.348 min
Base peak: 161.10732
Precursor m/z: 161.10732
Precursor type: [M+H]+
m/z	relative intensity
77.4424	1
83.3834	1
110.4598	1
114.4618	1
117.07	8
130.2511	1
143.0729	5
144.0808	999
162.4446	1
170.1645	1
