Mass spectrum: METHIONINE; LC-ESI-QFT; MS2; CE: 30eV;  [M+H]+
Name: METHIONINE
Class: NA
Formula: C5H11NO2S
Exact mass: 149.05105
SMILES: CSCC[C@H](N)C(O)=O
InChI: InChI=1S/C5H11NO2S/c1-9-3-2-4(6)5(7)8/h4H,2-3,6H2,1H3,(H,7,8)/t4-/m0/s1
Instrument: Q-Exactive Orbitrap, Thermo Scientfic; Ultimate 3000 HPLC, Thermo Scientfic
Instrument type: LC-ESI-QFT
Ms type: MS2
Ion mode: POSITIVE
Ionization: ESI
Collision energy: 30eV
Column name: Acquity CSHC18
Retention time: 0.700 min
Base peak: 150.0583
Precursor m/z: 150.0583
Precursor type: [M+H]+
Precursor intensity: 143
m/z	relative intensity
55.3074	3
55.8025	4
57.0343	9
57.0536	36
61.0114	923
65.1223	4
66.8924	4
69.6059	4
73.5997	4
74.0243	130
74.0607	239
74.9904	5
75.0271	6
77.0062	7
80.6184	4
84.045	71
84.8877	4
85.029	75
87.0269	252
89.0424	6
97.6524	4
99.8864	5
102.0554	999
103.0588	11
105.0009	21
105.0372	44
105.053	11
105.0565	77
105.0597	7
105.9634	4
134.0315	4
134.0355	65
149.0238	6
150.0585	746
151.0619	23
