Mass spectrum: Glyoxylic acid; LC-ESI-ITFT; MS2; CE: 60;  [M-H]-
Name: Glyoxylic acid
Class: Organic acids and derivatives; Carboxylic acids and derivatives; Carboxylic acids
Formula: C2H2O3
Exact mass: 74.00039
SMILES: OC(=O)C=O
InChI: InChI=1S/C2H2O3/c3-1-2(4)5/h1H,(H,4,5)
Instrument: Thermo Scientific Q-Exactive Focus
Instrument type: LC-ESI-ITFT
Ms type: MS2
Ion mode: NEGATIVE
Ionization: ESI
Collision energy: 60
Column name: Acquity CSHC18
Retention time: 2.028 min
Base peak: 72.99312
Precursor m/z: 72.99312
Precursor type: [M-H]-
m/z	relative intensity
56.4696	833
56.5393	970
59.1707	834
61.4767	911
70.5188	812
71.2012	999
77.8836	857
86.9898	901
87.8693	796
88.4733	803
