Mass spectrum: L-Asparagine; LC-ESI-ITFT; MS2; CE: 40;  [M-H]-
Name: L-Asparagine
Class: Organic acids and derivatives; Carboxylic acids and derivatives; Amino acids, peptides, and analogues
Formula: C4H8N2O3
Exact mass: 132.05349
SMILES: N[C@@H](CC(N)=O)C(O)=O
InChI: InChI=1S/C4H8N2O3/c5-2(4(8)9)1-3(6)7/h2H,1,5H2,(H2,6,7)(H,8,9)/t2-/m0/s1
Instrument: Thermo Scientific Q-Exactive Focus
Instrument type: LC-ESI-ITFT
Ms type: MS2
Ion mode: NEGATIVE
Ionization: ESI
Collision energy: 40
Column name: Acquity CSHC18
Retention time: 1.476 min
Base peak: 131.04622
Precursor m/z: 131.04622
Precursor type: [M-H]-
m/z	relative intensity
58.4197	874
65.5365	831
87.714	809
93.299	800
99.5994	999
99.759	778
101.7464	838
110.074	773
122.0352	825
135.0373	899
