Mass spectrum: Prostaglandin D1 Alcohol; ESI-TOF; MS2; CE: 0.6458333;  [M+H]+
Name: Prostaglandin D1 Alcohol
Class: NA
Formula: C20H36O4
Exact mass: 340.26136
SMILES: CCCCCC(O)/C=C/[C@H]1C(=O)CC(O)C1CCCCCCCO
InChI: InChI=1S/C20H36O4/c1-2-3-7-10-16(22)12-13-18-17(19(23)15-20(18)24)11-8-5-4-6-9-14-21/h12-13,16-19,21-23H,2-11,14-15H2,1H3/b13-12+/t16?,17?,18-,19?/m1/s1
Instrument: waters xevo g2 TOF
Instrument type: ESI-TOF
Ms type: MS2
Ion mode: POSITIVE
Ionization: ESI
Collision energy: 0.6458333
Column name: Acquity CSHC18
Retention time: 3.676 min
Base peak: 341.26936
Precursor m/z: 341.26936
Precursor type: [M+H]+
m/z	relative intensity
67.054	25
81.0706	73
91.0554	4
92.0586	3
93.0709	85
95.0866	87
105.0706	87
107.0864	71
109.1018	70
117.0704	30
119.0863	67
121.1014	52
122.1051	4
123.1173	13
129.0703	27
131.087	52
133.102	46
135.1177	28
137.0986	3
143.0851	26
145.1021	48
147.1169	39
149.1336	19
157.1021	11
159.1169	15
161.1329	39
163.1503	14
165.1274	5
171.1186	19
175.1487	25
177.146	4
183.0704	9
185.1331	15
186.1369	3
189.1628	7
199.1457	12
201.1637	4
213.1614	5
217.0897	22
223.1674	6
235.2053	7
237.184	4
245.2099	1
251.1545	2
253.1079	7
259.2424	2
263.2366	12
268.0787	12
269.1544	9
277.2531	14
279.2632	7
287.2377	91
288.2405	11
305.248	156
306.2513	28
319.1936	4
323.2582	16
324.2599	2
342.228	9
342.7327	4
343.1932	23
347.2783	6
351.2381	18
359.2016	16
360.2418	64
360.7435	30
361.2093	101
362.2261	20
363.2513	999
364.2547	232
365.256	23
369.2151	2
376.1727	35
378.1836	18
379.2007	5
394.1809	10
395.1866	11
396.1819	1
425.2222	24
426.2235	5
609.478	5
628.5031	3
680.4133	3
681.4099	3
716.4272	2
