Mass spectrum: MANNITOL; LC-ESI-QTOF; MS2; CE: 20;  [M-H]-
Name: MANNITOL
Class: NA
Formula: C6H14O6
Exact mass: 182.07904
SMILES: OC[C@@H](O)[C@@H](O)[C@H](O)[C@H](O)CO
InChI: InChI=1S/C6H14O6/c7-1-3(9)5(11)6(12)4(10)2-8/h3-12H,1-2H2/t3-,4-,5-,6-/m1/s1
Instrument: Agilent 6530Â Q-TOF LC/MS
Instrument type: LC-ESI-QTOF
Ms type: MS2
Ion mode: NEGATIVE
Ionization: ESI
Collision energy: 20
Column name: NA
Retention time: 0.200 min
Base peak: 181.07207
Precursor m/z: 181.07207
Precursor type: [M-H]-
Precursor intensity: 109
m/z	relative intensity
41.0084	113
43.0267	120
55.0257	177
59.033	192
71.0272	214
73.0323	215
83.0134	361
85.0265	377
89.0277	617
101.0234	999
