Mass spectrum: Alizarin 2-methyl ether; LC-ESI-QFT; MS2; CE: 15,30,45 (NCE);  [M-H]-
Name: Alizarin 2-methyl ether
Class: NA
Formula: C15H10O4
Exact mass: 254.0579
SMILES: COC1=C(O)C2=C(C=C1)C(=O)C1=CC=CC=C1C2=O
InChI: InChI=1S/C15H10O4/c1-19-11-7-6-10-12(15(11)18)14(17)9-5-3-2-4-8(9)13(10)16/h2-7,18H,1H3
Instrument: QE Focus, Thermo Scientfic; UPLC I-Class, Waters
Instrument type: LC-ESI-QFT
Ms type: MS2
Ion mode: NEGATIVE
Ionization: ESI
Collision energy: 15,30,45 (NCE)
Column name: Acquity CSHC18
Retention time: 4.328 min
Base peak: 253.0508
Precursor m/z: 253.0508
Precursor type: [M-H]-
Precursor intensity: 1590042
m/z	relative intensity
85.107	644
144.9223	999
