Mass spectrum: N-METHYLGLUTAMATE; LC-ESI-QTOF; MS2; CE: 10;  [M-H]-
Name: N-METHYLGLUTAMATE
Class: NA
Formula: C6H11NO4
Exact mass: 161.06881
SMILES: CNC(CCC(=O)O)C(=O)O
InChI: InChI=1S/C6H11NO4/c1-7-4(6(10)11)2-3-5(8)9/h4,7H,2-3H2,1H3,(H,8,9)(H,10,11)
Instrument: Agilent 6530Â Q-TOF LC/MS
Instrument type: LC-ESI-QTOF
Ms type: MS2
Ion mode: NEGATIVE
Ionization: ESI
Collision energy: 10
Column name: NA
Retention time: 0.200 min
Base peak: 160.05860
Precursor m/z: 160.05860
Precursor type: [M-H]-
Precursor intensity: 105
m/z	relative intensity
116.0899	609
142.0689	940
160.0731	999
