Mass spectrum: 7?-hydroxy-3-oxo-4-cholestenoic acid; ESI-TOF; MS2; CE: 0.6458333;  [M+H]+
Name: 7?-hydroxy-3-oxo-4-cholestenoic acid
Class: NA
Formula: C27H42O4
Exact mass: 430.30831
SMILES: [H]OC(=O)C([H])(C([H])([H])[H])C([H])([H])C([H])([H])C([H])([H])C([H])(C([H])([H])[H])C2([H])(C([H])([H])C([H])([H])C3([H])(C4([H])(C([H])(O[H])C([H])([H])C1=C([H])C(=O)C([H])([H])C([H])([H])C1(C([H])([H])[H])C4([H])(C([H])([H])C([H])([H])C23(C([H])([H])[H])))))
InChI: InChI=1S/C27H42O4/c1-16(6-5-7-17(2)25(30)31)20-8-9-21-24-22(11-13-27(20,21)4)26(3)12-10-19(28)14-18(26)15-23(24)29/h14,16-17,20-24,29H,5-13,15H2,1-4H3,(H,30,31)
Instrument: waters xevo g2 TOF
Instrument type: ESI-TOF
Ms type: MS2
Ion mode: POSITIVE
Ionization: ESI
Collision energy: 0.6458333
Column name: Acquity CSHC18
Retention time: 6.927 min
Base peak: 431.31631
Precursor m/z: 431.31631
Precursor type: [M+H]+
m/z	relative intensity
81.0705	28
93.0697	9
95.0867	51
97.0653	241
107.0863	32
109.1018	45
110.1054	4
111.1171	7
119.0857	28
121.1017	46
123.1177	23
125.0599	31
127.1118	7
131.0859	19
133.1019	41
135.1173	31
137.0972	10
139.1122	12
143.0867	9
145.1017	39
147.117	44
149.0962	38
151.1127	10
157.102	30
159.1176	55
160.1201	6
161.1325	19
163.1117	32
165.1277	10
167.1418	10
171.1176	13
173.133	44
175.1122	47
176.1155	5
177.1277	214
178.1308	16
183.117	5
185.1334	14
187.1485	26
188.1531	4
189.1271	25
191.1801	20
193.1591	4
197.1329	24
199.1483	11
201.1644	38
203.1429	13
205.1584	6
209.1313	16
211.1487	30
213.1632	14
215.1429	41
217.1588	15
219.1745	11
223.1481	7
225.1648	17
227.1433	5
229.1595	38
230.1624	6
231.1747	11
237.1822	25
239.1795	20
241.159	15
243.1747	32
245.19	5
251.165	24
253.1949	33
255.176	24
257.1904	11
267.1733	11
268.1761	6
269.1907	151
270.1938	21
271.2044	37
277.2173	15
279.21	18
281.1883	7
297.2218	90
299.2353	17
305.2443	6
309.254	5
317.2486	31
337.2514	11
349.29	10
355.2626	19
359.2727	15
367.2997	180
368.3047	53
377.2836	170
378.2852	50
379.2914	6
395.2944	698
396.2976	197
397.3008	28
413.3047	251
414.309	45
415.3113	12
431.3158	999
432.3191	311
