Mass spectrum: G1P; LC-ESI-QTOF; MS2; CE: 10;  [M-H]-
Name: G1P
Class: NA
Formula: C6H13O9P
Exact mass: 260.0297
SMILES: C(C1C(C(C(C(O1)OP(=O)(O)O)O)O)O)O
InChI: InChI=1S/C6H13O9P/c7-1-2-3(8)4(9)5(10)6(14-2)15-16(11,12)13/h2-10H,1H2,(H2,11,12,13)
Instrument: impact II
Instrument type: LC-ESI-QTOF
Ms type: MS2
Ion mode: NEGATIVE
Ionization: ESI
Collision energy: 10
Column name: Acquity CSHC18
Retention time: 1.943 min
Base peak: 259.0223
Precursor m/z: 259.0223
Precursor type: [M-H]-
m/z	relative intensity
78.9595	678
96.9699	302
138.9801	305
241.0115	422
259.0219	999
260.0258	137
