Mass spectrum: 7-methylsulfinylheptyl isothiocyanate; LC-ESI-QTOF; MS2; CE: 35.00;  [M+Na]+
Name: 7-methylsulfinylheptyl isothiocyanate
Class: NA
Formula: C9H17NOS2
Exact mass: 219.0752
SMILES: CS(=O)CCCCCCCN=C=S
InChI: InChI=1S/C9H17NOS2/c1-13(11)8-6-4-2-3-5-7-10-9-12/h2-8H2,1H3
Instrument: Bruker MicrOTOF-Q
Instrument type: LC-ESI-QTOF
Ms type: MS2
Ion mode: POSITIVE
Ionization: ESI
Collision energy: 35.00
Column name: Acquity CSHC18
Retention time: NA
Base peak: 242.0642
Precursor m/z: 242.0642
Precursor type: [M+Na]+
m/z	relative intensity
122.0924	999
126.0327	799
129.0587	827
