Mass spectrum: D-Allose; LC-ESI-QTOF; MS2; CE: 15.00;  [M+Na]+
Name: D-Allose
Class: NA
Formula: C6H12O6
Exact mass: 180.0634
SMILES: C(C1C(C(C(C(O1)O)O)O)O)O
InChI: InChI=1S/C6H12O6/c7-1-2-3(8)4(9)5(10)6(11)12-2/h2-11H,1H2
Instrument: Bruker MicrOTOF-Q
Instrument type: LC-ESI-QTOF
Ms type: MS2
Ion mode: POSITIVE
Ionization: ESI
Collision energy: 15.00
Column name: Acquity CSHC18
Retention time: NA
Base peak: 203.0526
Precursor m/z: 203.0526
Precursor type: [M+Na]+
m/z	relative intensity
85.0235	11
98.0576	13
101.0105	16
109.0318	88
112.0426	11
115.0445	15
127.0384	116
127.0832	19
139.9737	9
143.0288	14
144.0681	18
145.0464	91
203.0536	999
204.0799	96
