Mass spectrum: Glucolesquerrelin; LC-ESI-QTOF; MS2; CE: 20.26;  [M-O3S+H]+
Name: Glucolesquerrelin
Class: NA
Formula: C14H27NO9S3
Exact mass: 449.0848
SMILES: CSCCCCCCC(=NOS(=O)(=O)O)SC1C(C(C(C(O1)CO)O)O)O
InChI: InChI=1S/C14H27NO9S3/c1-25-7-5-3-2-4-6-10(15-24-27(20,21)22)26-14-13(19)12(18)11(17)9(8-16)23-14/h9,11-14,16-19H,2-8H2,1H3,(H,20,21,22)
Instrument: Bruker MicrOTOF-Q
Instrument type: LC-ESI-QTOF
Ms type: MS2
Ion mode: POSITIVE
Ionization: ESI
Collision energy: 20.26
Column name: Acquity CSHC18
Retention time: NA
Base peak: 370.1353
Precursor m/z: 370.1353
Precursor type: [M-O3S+H]+
m/z	relative intensity
123.0703	54
127.0449	103
131.0864	108
142.069	47
147.0827	291
148.0839	51
149.0964	128
151.0748	666
153.0846	40
160.0782	175
161.089	69
163.1141	117
171.1193	332
174.1019	80
175.0439	73
177.1179	70
185.0975	57
189.1292	999
190.0733	359
193.081	137
207.0644	258
207.139	291
249.1538	49
372.2845	43
