Mass spectrum: 8,9-epoxy-14-oxo-germacra-1,10E,4,5Z,7,11-trienolide; LC-ESI-ITFT; MS2; CE: 50eV;  [M+H]+
Name: 8,9-epoxy-14-oxo-germacra-1,10E,4,5Z,7,11-trienolide
Class: Sesquiterpenelactone; Germacrolide
Formula: C15H16O4
Exact mass: 260.1049
SMILES: C=C1[C@@H]2C3OC3C(=CCCC(C)=C[C@H]2OC1=O)C=O
InChI: InChI=1S/C15H16O4/c1-8-4-3-5-10(7-16)13-14(19-13)12-9(2)15(17)18-11(12)6-8/h5-7,11-14H,2-4H2,1H3/t11-,12+,13?,14?/m1/s1
Instrument: Q Exactive Plus, ThermoFisher Scientific
Instrument type: LC-ESI-ITFT
Ms type: MS2
Ion mode: POSITIVE
Ionization: ESI
Collision energy: 50eV
Column name: Acquity CSHC18
Retention time: 5.878 min
Base peak: 261.1121
Precursor m/z: 261.1121
Precursor type: [M+H]+
Precursor intensity: 164993600
m/z	relative intensity
51.2605	14
63.0122	13
69.5265	27
69.5298	36
81.0706	54
93.0705	15
105.0701	62
107.0854	28
131.0857	69
143.0852	19
159.0436	15
159.0816	16
159.1158	100
169.1017	87
171.1175	59
173.0596	15
173.0963	23
187.1127	336
189.0922	21
197.0962	128
199.1113	28
205.1225	30
215.108	999
225.0894	64
233.1196	54
243.101	551
261.1122	313
