Mass spectrum: 16,16-dimethyl Prostaglandin A1; ESI-TOF; MS2; CE: 0.6458333;  [M+H]+
Name: 16,16-dimethyl Prostaglandin A1
Class: NA
Formula: C22H36O4
Exact mass: 364.26136
SMILES: CCCCC(C)(C)C(O)\C=C\[C@H]1C=CC(=O)C1CCCCCCC(=O)O
InChI: InChI=1S/C22H36O4/c1-4-5-16-22(2,3)20(24)15-13-17-12-14-19(23)18(17)10-8-6-7-9-11-21(25)26/h12-15,17-18,20,24H,4-11,16H2,1-3H3,(H,25,26)/b15-13+/t17-,18?,20?/m1/s1
Instrument: waters xevo g2 TOF
Instrument type: ESI-TOF
Ms type: MS2
Ion mode: POSITIVE
Ionization: ESI
Collision energy: 0.6458333
Column name: Acquity CSHC18
Retention time: 4.403 min
Base peak: 365.26936
Precursor m/z: 365.26936
Precursor type: [M+H]+
m/z	relative intensity
67.0541	48
69.0698	135
79.055	84
81.0707	289
83.0851	92
91.056	102
93.0697	239
95.0863	399
97.1012	57
105.0709	297
107.0867	193
109.102	113
111.0817	48
117.0718	138
119.0868	420
120.0889	25
121.1029	145
123.1181	74
125.0959	25
129.0707	126
130.0775	25
131.0863	303
132.0912	23
133.1014	321
135.118	125
137.1331	224
142.0756	25
143.0861	206
144.0919	27
145.1028	515
146.1059	60
147.1178	278
149.1146	44
153.0221	25
155.0841	29
156.0932	14
157.102	401
158.1094	38
159.1178	388
160.1231	32
161.1178	257
162.1005	24
163.1485	76
167.0492	15
169.1028	51
171.1185	244
173.1327	140
175.1126	354
177.1632	18
181.1008	53
183.1163	54
185.1303	101
186.1336	17
187.1477	135
189.1271	200
194.0107	33
195.1171	44
199.1484	71
200.1528	19
201.1644	183
203.143	54
205.1243	22
209.0915	28
211.1478	63
213.1635	181
214.1702	19
215.1796	45
217.1584	85
219.1754	45
225.1629	28
227.1813	62
229.1583	35
231.1931	523
232.1776	80
241.1507	15
245.1508	52
248.0714	34
249.0807	137
255.1728	49
261.0806	29
267.2114	20
269.189	25
273.1842	106
274.1882	15
283.2425	69
287.2017	59
293.223	95
301.1952	125
302.2549	39
311.2364	692
312.2411	127
315.1262	92
329.1923	999
330.251	453
331.2578	31
347.2584	217
348.2628	47
353.2637	74
