Mass spectrum: L-Aspartic acid; LC-ESI-ITFT; MS2; CE: 60;  [M-H]-
Name: L-Aspartic acid
Class: Organic acids and derivatives; Carboxylic acids and derivatives; Amino acids, peptides, and analogues
Formula: C4H7NO4
Exact mass: 133.03751
SMILES: N[C@@H](CC(O)=O)C(O)=O
InChI: InChI=1S/C4H7NO4/c5-2(4(8)9)1-3(6)7/h2H,1,5H2,(H,6,7)(H,8,9)/t2-/m0/s1
Instrument: Thermo Scientific Q-Exactive Focus
Instrument type: LC-ESI-ITFT
Ms type: MS2
Ion mode: NEGATIVE
Ionization: ESI
Collision energy: 60
Column name: Acquity CSHC18
Retention time: 2.027 min
Base peak: 132.03023
Precursor m/z: 132.03023
Precursor type: [M-H]-
m/z	relative intensity
77.3999	834
81.1366	937
85.4144	978
92.6739	906
95.5519	935
119.2042	999
141.5284	827
147.3039	851
149.4805	924
150.0304	910
