Mass spectrum: Methyl jasmonate; LC-ESI-ITFT; MS2; CE: 10;  [M+H]+
Name: Methyl jasmonate
Class: Lipids and lipid-like molecules; Fatty Acyls; Lineolic acids and derivatives
Formula: C13H20O3
Exact mass: 224.14124
SMILES: CC\C=C/C[C@@H]1[C@@H](CC(=O)OC)CCC1=O
InChI: InChI=1S/C13H20O3/c1-3-4-5-6-11-10(7-8-12(11)14)9-13(15)16-2/h4-5,10-11H,3,6-9H2,1-2H3/b5-4-/t10-,11-/m1/s1
Instrument: Thermo Scientific Q-Exactive Focus
Instrument type: LC-ESI-ITFT
Ms type: MS2
Ion mode: POSITIVE
Ionization: ESI
Collision energy: 10
Column name: Acquity CSHC18
Retention time: 0.348 min
Base peak: 225.14851
Precursor m/z: 225.14851
Precursor type: [M+H]+
m/z	relative intensity
105.0702	55
133.1013	642
147.1169	653
151.1118	999
165.1274	75
169.086	148
175.1118	206
193.1224	210
207.1379	309
225.1485	335
