Mass spectrum: Pseudoephedrine; ESI-TOF; MS2; CE: 6.0000000;  [M+H]+
Name: Pseudoephedrine
Class: NA
Formula: C10H15NO
Exact mass: 165.11536
SMILES: CNC(C)C(O)C1=CC=CC=C1
InChI: InChI=1S/C10H15NO/c1-8(11-2)10(12)9-6-4-3-5-7-9/h3-8,10-12H,1-2H3
Instrument: waters xevo g2 TOF
Instrument type: ESI-TOF
Ms type: MS2
Ion mode: POSITIVE
Ionization: ESI
Collision energy: 6.0000000
Column name: Acquity CSHC18
Retention time: 1.665 min
Base peak: 166.12336
Precursor m/z: 166.12336
Precursor type: [M+H]+
m/z	relative intensity
113.9643	1
117.0702	1
133.0889	5
135.081	1
148.1125	999
149.1156	114
150.1189	4
166.123	62
166.1232	28
167.1263	11
