Mass spectrum: sinapoyl D-glucoside; LC-ESI-QTOF; MS2; CE: 20-40eV;  [M+H]+
Name: sinapoyl D-glucoside
Class: Hydroxycinnamic acids and derivatives
Formula: C17H22O10
Exact mass: 386.1213
SMILES: COC=1C=C(C(=C(C(=O)OC2(C(C(C(C(CO)(O2)[H])(O)[H])(O)[H])(O)[H])[H])[H])[H])C=C(C1O)OC
InChI: InChI=1S/C17H22O10/c1-24-9-5-8(6-10(25-2)13(9)20)3-4-12(19)27-17-16(23)15(22)14(21)11(7-18)26-17/h3-6,11,14-18,20-23H,7H2,1-2H3
Instrument: Impact II, Bruker; Dionex 3000, Thermo Scientific
Instrument type: LC-ESI-QTOF
Ms type: MS2
Ion mode: POSITIVE
Ionization: ESI
Collision energy: 20-40eV
Column name: Acquity CSHC18
Retention time: 4.137 min
Base peak: 387.1289
Precursor m/z: 387.1289
Precursor type: [M+H]+
Precursor intensity: 59195
m/z	relative intensity
97.0468	14
105.0517	14
106.0556	15
107.0666	18
108.0684	20
109.0453	24
118.0522	24
123.0449	26
134.0642	30
145.039	35
147.0816	36
165.1096	39
173.0386	46
207.0891	56
207.5094	484
209.1143	646
387.2229	999
