Mass spectrum: ADENOSINE DIPHOSPHATE RIBOSE; LC-ESI-QTOF; MS2; CE: 10;  [M+H]+
Name: ADENOSINE DIPHOSPHATE RIBOSE
Class: NA
Formula: C15H23N5O14P2
Exact mass: 559.07167
SMILES: NC1=C2N=CN(C3OC(COP(O)(=O)OP(O)(=O)OCC4OC(O)C(O)C4O)C(O)C3O)C2=NC=N1
InChI: InChI=1S/C15H23N5O14P2/c16-12-7-13(18-3-17-12)20(4-19-7)14-10(23)8(21)5(32-14)1-30-35(26,27)34-36(28,29)31-2-6-9(22)11(24)15(25)33-6/h3-6,8-11,14-15,21-25H,1-2H2,(H,26,27)(H,28,29)(H2,16,17,18)
Instrument: Agilent 6530Â Q-TOF LC/MS
Instrument type: LC-ESI-QTOF
Ms type: MS2
Ion mode: POSITIVE
Ionization: ESI
Collision energy: 10
Column name: NA
Retention time: 0.200 min
Base peak: 560.08144
Precursor m/z: 560.08144
Precursor type: [M+H]+
Precursor intensity: 83.5
m/z	relative intensity
97.0199	68
97.0256	87
97.0312	77
97.0368	60
97.0425	46
97.0481	36
136.0366	31
136.0433	301
136.05	772
136.0566	999
136.0633	932
136.07	761
136.0767	592
136.0834	450
136.0901	328
136.0968	253
136.1035	195
136.1101	148
136.1168	111
136.1235	79
136.1302	58
136.1369	46
136.1436	36
136.1503	30
348.0355	107
348.0462	328
348.0568	574
348.0675	669
348.0782	618
348.0889	513
348.0996	396
348.1103	299
348.121	238
348.1317	195
348.1424	164
348.1531	121
348.1638	81
348.1745	64
348.1852	43
348.1958	30
428.0029	32
428.0147	91
428.0266	124
428.0384	122
428.0503	102
428.0622	81
428.074	57
428.0859	38
524.0222	45
524.0353	57
524.0484	64
524.0615	61
524.0746	49
524.0878	41
524.1009	33
542.0295	35
542.0428	67
542.0562	93
542.0695	96
542.0829	84
542.0962	65
542.1096	50
542.1229	39
542.1362	29
560.029	75
560.0426	208
560.0562	379
560.0697	455
560.0833	423
560.0968	355
560.1104	276
560.124	223
560.1375	175
560.1511	129
560.1647	91
560.1782	63
560.1918	50
560.2053	34
