Mass spectrum: 5,7-Dihydroxyflavone; LC-ESI-QTOF; MS2; CE: 15;  [M-H]-
Name: 5,7-Dihydroxyflavone
Class: NA
Formula: C15H10O4
Exact mass: 254.0579
SMILES: C1=CC=C(C=C1)C2=CC(=O)C3=C(C=C(C=C3O2)O)O
InChI: InChI=1S/C15H10O4/c16-10-6-11(17)15-12(18)8-13(19-14(15)7-10)9-4-2-1-3-5-9/h1-8,16-17H
Instrument: Bruker MicrOTOF-Q
Instrument type: LC-ESI-QTOF
Ms type: MS2
Ion mode: NEGATIVE
Ionization: ESI
Collision energy: 15
Column name: Acquity CSHC18
Retention time: NA
Base peak: 253.0506
Precursor m/z: 253.0506
Precursor type: [M-H]-
m/z	relative intensity
46.9425	7
49.9602	5
57.1348	5
63.0268	5
66.756	5
68.8773	6
70.1451	5
75.6313	5
76.2592	5
77.8465	5
79.3982	5
80.6636	5
82.2559	5
83.1724	5
84.4015	5
86.1957	5
88.3614	5
89.9229	7
91.3608	6
92.1121	5
94.6451	5
95.4693	5
95.9891	5
97.0758	5
98.7173	5
100.2804	5
101.3611	6
102.1672	5
102.6852	5
105.5691	5
106.89	24
107.8101	5
111.8722	5
112.8331	7
113.3701	5
113.8829	6
115.0635	9
116.8119	5
119.1901	15
119.8995	5
121.0378	9
122.3351	6
123.4721	6
126.0965	5
127.077	5
128.3678	5
129.0836	5
130.0482	5
130.7332	6
131.6706	5
134.8174	5
135.72	5
136.5019	6
136.9925	5
137.7318	6
138.4096	6
139.0607	13
139.8033	5
141.0661	7
142.3509	5
143.1076	70
144.4916	22
145.4765	5
146.3658	6
147.5489	6
149.0174	5
150.5671	10
152.1398	5
153.0407	11
154.365	7
155.3461	5
156.2499	5
157.1158	9
157.7459	5
158.6866	5
160.1108	5
160.8345	5
161.5211	6
162.3491	5
163.1115	7
164.1588	6
165.0702	42
166.0765	7
167.0039	19
168.0177	6
168.689	5
169.3956	5
170.5607	5
171.0823	12
171.8274	5
173.1142	7
174.1042	7
174.7967	6
175.7838	6
176.325	6
176.8767	5
179.8548	20
180.6067	6
181.0677	98
182.044	8
183.2051	15
184.0346	6
185.5071	18
187.2341	20
187.9269	6
188.4541	6
189.2094	5
191.2981	5
192.0471	9
193.0203	6
194.2627	6
195.3622	6
197.3481	15
198.3214	5
199.1139	7
200.4384	6
201.4319	5
201.9726	6
202.5965	5
203.2457	5
204.1723	5
205.3124	5
206.3567	7
206.8482	5
209.1162	76
210.9759	132
212.045	36
213.2942	8
214.3976	5
215.0932	6
215.6707	6
216.3642	6
217.629	5
218.5083	5
218.9407	7
219.5139	6
220.642	5
222.1797	6
224.0385	9
224.8763	64
225.515	5
226.4631	8
227.9113	5
230.2097	6
231.1137	5
231.8872	5
232.6144	6
233.4795	6
235.0092	6
236.3252	5
237.1526	6
238.3567	5
239.0803	7
240.1966	6
242.5461	6
243.4241	5
243.9837	5
244.9064	6
246.0515	5
248.1505	5
249.9369	5
251.0064	5
251.9131	36
254.6377	999
