Mass spectrum: Sinapoyl.malate; LC-ESI-ITFT; MS2; CE: 30;  [M+H]+
Name: Sinapoyl.malate
Class: NA
Formula: C15H16O9
Exact mass: 340.0794
SMILES: c1(cc(c(c(c1)OC)OC(=O)[C@@H](O)CC(=O)O)OC)/C=C/C(=O)O
InChI: InChI=1S/C15H16O9/c1-22-10-5-8(3-4-12(17)18)6-11(23-2)14(10)24-15(21)9(16)7-13(19)20/h3-6,9,16H,7H2,1-2H3,(H,17,18)(H,19,20)/b4-3+/t9-/m0/s1
Instrument: q exactive focus thermo
Instrument type: LC-ESI-ITFT
Ms type: MS2
Ion mode: POSITIVE
Ionization: ESI
Collision energy: 30
Column name: Acquity CSHC18
Retention time: 7.210 min
Base peak: 341.0862
Precursor m/z: 341.0862
Precursor type: [M+H]+
Precursor intensity: 61918910
m/z	relative intensity
101.0493	11
103.0467	13
105.0493	27
107.0309	35
121.0496	37
129.0447	48
130.0494	53
147.0547	66
149.0409	68
157.0384	91
158.029	102
209.0571	161
213.0643	271
229.0404	617
239.0851	999
