Mass spectrum: URIDINE DIPHOSPHATE GLUCOSE; LC-ESI-QFT; MS2; CE: 30eV;  [M-H]-
Name: URIDINE DIPHOSPHATE GLUCOSE
Class: NA
Formula: C15H24N2O17P2
Exact mass: 566.05502
SMILES: OC[C@@H]1OC(OP(O)(=O)OP(O)(=O)OC[C@@H]2O[C@@H]([C@@H](O)[C@H]2O)N2C=CC(=O)NC2=O)[C@@H](O)[C@H](O)[C@H]1O
InChI: InChI=1S/C15H24N2O17P2/c18-3-5-8(20)10(22)12(24)14(32-5)33-36(28,29)34-35(26,27)30-4-6-9(21)11(23)13(31-6)17-2-1-7(19)16-15(17)25/h1-2,5-6,8-14,18,20-24H,3-4H2,(H,26,27)(H,28,29)(H,16,19,25)/t5-,6-,8-,9-,10+,11-,12-,13-,14?/m0/s1
Instrument: Q-Exactive Orbitrap, Thermo Scientfic; Ultimate 3000 HPLC, Thermo Scientfic
Instrument type: LC-ESI-QFT
Ms type: MS2
Ion mode: NEGATIVE
Ionization: ESI
Collision energy: 30eV
Column name: Acquity CSHC18
Retention time: 0.585 min
Base peak: 565.0477
Precursor m/z: 565.0477
Precursor type: [M-H]-
Precursor intensity: 101
m/z	relative intensity
53.7448	5
54.8553	6
56.81	6
56.9079	5
63.1687	6
64.8908	6
72.798	7
73.9339	5
78.7075	5
78.9575	537
84.0519	5
90.1127	7
96.968	324
100.5908	6
111.0185	46
112.5515	6
118.6701	7
120.9681	10
126.4453	10
128.301	6
131.7624	6
133.1584	5
134.6243	6
134.6787	7
138.9788	30
150.9789	34
158.9239	58
169.175	7
174.7566	6
176.9352	16
190.6023	8
192.99	13
195.1118	7
211.0004	135
241.0114	240
258.5046	7
272.9571	145
280.0226	100
305.0188	33
320.9781	100
323.0286	999
324.0322	69
332.5443	7
342.1484	7
370.1892	7
377.2967	8
384.9843	155
402.9935	10
