Mass spectrum: 5-Hydroxy-1,4-naphthoquinone; LC-ESI-QTOF; MS2; CE: 15.00;  [M+H]+
Name: 5-Hydroxy-1,4-naphthoquinone
Class: NA
Formula: C10H6O3
Exact mass: 174.0317
SMILES: C1=CC2=C(C(=O)C=CC2=O)C(=C1)O
InChI: InChI=1S/C10H6O3/c11-7-4-5-9(13)10-6(7)2-1-3-8(10)12/h1-5,12H
Instrument: Bruker MicrOTOF-Q
Instrument type: LC-ESI-QTOF
Ms type: MS2
Ion mode: POSITIVE
Ionization: ESI
Collision energy: 15.00
Column name: Acquity CSHC18
Retention time: NA
Base peak: 175.0390
Precursor m/z: 175.0390
Precursor type: [M+H]+
m/z	relative intensity
119.0467	79
120.0507	28
121.0261	137
129.0315	45
130.0346	18
133.0293	40
147.0428	999
148.0467	140
157.03	20
175.0375	644
176.0433	128
