Mass spectrum: INDOLEACETALDEHYDE; LC-ESI-QTOF; MS2; CE: 40;  [M+H]+
Name: INDOLEACETALDEHYDE
Class: NA
Formula: C10H9NO
Exact mass: 159.06841
SMILES: O=CCC1=CNC2=CC=CC=C12
InChI: InChI=1S/C10H9NO/c12-6-5-8-7-11-10-4-2-1-3-9(8)10/h1-4,6-7,11H,5H2
Instrument: Agilent 6530Â Q-TOF LC/MS
Instrument type: LC-ESI-QTOF
Ms type: MS2
Ion mode: POSITIVE
Ionization: ESI
Collision energy: 40
Column name: NA
Retention time: 0.200 min
Base peak: 160.07372
Precursor m/z: 160.07372
Precursor type: [M+H]+
Precursor intensity: 112.5
m/z	relative intensity
65.0423	221
77.0502	247
79.0552	277
89.0441	403
90.0637	457
91.0673	467
102.0529	564
103.0628	623
117.0679	806
130.0824	999
