Mass spectrum: Chlorogenin; APCI-ITFT; MS2; CE: CID 35;  [M-H]-
Name: Chlorogenin
Class: NA
Formula: C27H44O4
Exact mass: 432.32396
SMILES: CC1CCC2(C(C3C(O2)CC4C3(CCC5C4CC(C6C5(CCC(C6)O)C)O)C)C)OC1
InChI: InChI=1S/C27H44O4/c1-15-5-10-27(30-14-15)16(2)24-23(31-27)13-20-18-12-22(29)21-11-17(28)6-8-25(21,3)19(18)7-9-26(20,24)4/h15-24,28-29H,5-14H2,1-4H3
Instrument: Orbitrap Elite
Instrument type: APCI-ITFT
Ms type: MS2
Ion mode: NEGATIVE
Ionization: APCI
Collision energy: CID 35
Column name: Acquity CSHC18
Retention time: 0.205 min
Base peak: 431.31570
Precursor m/z: 431.31570
Precursor type: [M-H]-
Precursor intensity: 313499.7
m/z	relative intensity
313.719	229
332.4758	304
346.2329	307
359.4399	350
371.6397	368
386.8478	468
401.2254	595
413.5531	681
430.2696	999
