Mass spectrum: O-Phospho-L-tyrosine; LC-ESI-QTOF; MS2; CE: -10, -35, -60V;  [M-H]-
Name: O-Phospho-L-tyrosine
Class: NA
Formula: C9H12NO6P
Exact mass: 261.0402
SMILES: C1=CC(=CC=C1CC(C(=O)O)N)OP(=O)(O)O
InChI: InChI=1S/C9H12NO6P/c10-8(9(11)12)5-6-1-3-7(4-2-6)16-17(13,14)15/h1-4,8H,5,10H2,(H,11,12)(H2,13,14,15)
Instrument: TripleToF 5600; Sciex
Instrument type: LC-ESI-QTOF
Ms type: MS2
Ion mode: NEGATIVE
Ionization: ESI
Collision energy: -10, -35, -60V
Column name: Acquity CSHC18
Retention time: 8.518 min
Base peak: 260.0371
Precursor m/z: 260.0371
Precursor type: [M-H]-
Precursor intensity: 62081.31
m/z	relative intensity
78.7201	8
78.9595	999
259.2158	23
260.0323	967
