Mass spectrum: (22S,25R)-22,26-Imino-5alpha-cholestan-3beta,16beta-diol; APCI-ITFT; MS2; CE: CID 35;  [M-H]-
Name: (22S,25R)-22,26-Imino-5alpha-cholestan-3beta,16beta-diol
Class: NA
Formula: C27H47NO2
Exact mass: 417.36068
SMILES: C[C@@H](CN1)CC[C@H]1[C@@H](C)[C@H]2[C@@H](O)C[C@@]3([H])[C@]4([H])CC[C@@]5([H])C[C@@H](O)CC[C@]5(C)[C@@]4([H])CC[C@]23C
InChI: InChI=1S/C27H47NO2/c1-16-5-8-23(28-15-16)17(2)25-24(30)14-22-20-7-6-18-13-19(29)9-11-26(18,3)21(20)10-12-27(22,25)4/h16-25,28-30H,5-15H2,1-4H3/t16-,17-,18+,19+,20-,21+,22+,23+,24+,25+,26+,27+/m1/s1
Instrument: Orbitrap Elite
Instrument type: APCI-ITFT
Ms type: MS2
Ion mode: NEGATIVE
Ionization: APCI
Collision energy: CID 35
Column name: Acquity CSHC18
Retention time: 0.268 min
Base peak: 416.35300
Precursor m/z: 416.35300
Precursor type: [M-H]-
Precursor intensity: 133501.8
m/z	relative intensity
204.1383	23
268.7993	37
271.1712	32
273.1842	26
282.7776	30
284.7734	40
289.2154	23
289.2533	28
299.2347	26
301.2151	40
315.2357	54
316.2312	32
317.2479	55
319.2644	24
330.2422	40
332.7828	26
344.2581	29
349.2404	37
354.2804	25
358.2382	29
359.1798	190
370.2372	23
370.3103	33
371.2448	24
371.3244	25
372.2136	73
372.275	84
372.2873	269
373.2972	26
374.2678	28
380.2923	28
383.2405	36
384.218	31
384.3298	85
386.3441	152
387.3424	29
388.3225	34
394.3089	26
396.3278	999
397.2864	75
397.3338	83
398.3048	792
398.3485	602
399.3092	259
400.2834	130
412.3193	28
415.3007	27
416.355	88
