Mass spectrum: Phenylpyruvic acid; LC-ESI-ITFT; MS2; CE: 60;  [M-H]-
Name: Phenylpyruvic acid
Class: Benzenoids; Benzene and substituted derivatives; Phenylpyruvic acid derivatives
Formula: C9H8O3
Exact mass: 164.04734
SMILES: OC(=O)C(=O)CC1=CC=CC=C1
InChI: InChI=1S/C9H8O3/c10-8(9(11)12)6-7-4-2-1-3-5-7/h1-5H,6H2,(H,11,12)
Instrument: Thermo Scientific Q-Exactive Focus
Instrument type: LC-ESI-ITFT
Ms type: MS2
Ion mode: NEGATIVE
Ionization: ESI
Collision energy: 60
Column name: Acquity CSHC18
Retention time: 2.028 min
Base peak: 163.04007
Precursor m/z: 163.04007
Precursor type: [M-H]-
m/z	relative intensity
61.8671	827
70.0429	835
70.1174	893
74.8547	800
98.3474	811
102.1047	786
130.2045	841
139.5944	999
146.8324	811
174.729	889
