Mass spectrum: L-Lactic acid; LC-ESI-ITFT; MS2; CE: 10;  [M-H]-
Name: L-Lactic acid
Class: Organic acids and derivatives; Hydroxy acids and derivatives; Alpha hydroxy acids and derivatives
Formula: C3H6O3
Exact mass: 90.03169
SMILES: C[C@H](O)C(O)=O
InChI: InChI=1S/C3H6O3/c1-2(4)3(5)6/h2,4H,1H3,(H,5,6)/t2-/m0/s1
Instrument: Thermo Scientific Q-Exactive Focus
Instrument type: LC-ESI-ITFT
Ms type: MS2
Ion mode: NEGATIVE
Ionization: ESI
Collision energy: 10
Column name: Acquity CSHC18
Retention time: NA
Base peak: 89.02442
Precursor m/z: 89.02442
Precursor type: [M-H]-
m/z	relative intensity
53.9664	2
59.2965	3
71.0126	22
77.6084	3
78.8837	3
87.0075	21
89.0232	999
92.3885	3
97.4356	3
102.3058	3
