Mass spectrum: Cyclic AMP; LC-ESI-ITFT; MS2; CE: 100;  [M+H]+
Name: Cyclic AMP
Class: Nucleosides, nucleotides, and analogues; Purine nucleotides; Cyclic purine nucleotides
Formula: C10H12N5O6P
Exact mass: 329.05252
SMILES: NC1=NC=NC2=C1N=CN2[C@@H]1O[C@@H]2COP(O)(=O)O[C@H]2[C@H]1O
InChI: InChI=1S/C10H12N5O6P/c11-8-5-9(13-2-12-8)15(3-14-5)10-6(16)7-4(20-10)1-19-22(17,18)21-7/h2-4,6-7,10,16H,1H2,(H,17,18)(H2,11,12,13)/t4-,6-,7-,10-/m1/s1
Instrument: Thermo Scientific Q-Exactive Focus
Instrument type: LC-ESI-ITFT
Ms type: MS2
Ion mode: POSITIVE
Ionization: ESI
Collision energy: 100
Column name: Acquity CSHC18
Retention time: 2.573 min
Base peak: 330.05981
Precursor m/z: 330.05981
Precursor type: [M+H]+
m/z	relative intensity
53.998	136
55.0297	156
65.014	396
67.0296	597
77.0139	78
92.0247	999
94.0403	146
98.9845	595
119.0354	893
137.0458	129
