Mass spectrum: D-Glucurono-3,6-lactone; LC-ESI-QTOF; MS2; CE: 15.00;  [M-H2O+H]+
Name: D-Glucurono-3,6-lactone
Class: NA
Formula: C6H8O6
Exact mass: 176.0321
SMILES: C(=O)C(C1C(C(C(=O)O1)O)O)O
InChI: InChI=1S/C6H8O6/c7-1-2(8)5-3(9)4(10)6(11)12-5/h1-5,8-10H
Instrument: Bruker MicrOTOF-Q
Instrument type: LC-ESI-QTOF
Ms type: MS2
Ion mode: POSITIVE
Ionization: ESI
Collision energy: 15.00
Column name: Acquity CSHC18
Retention time: NA
Base peak: 159.0288
Precursor m/z: 159.0288
Precursor type: [M-H2O+H]+
m/z	relative intensity
99.01	112
113.03	239
123	101
141.01	101
159.02	999
160.03	138
177.04	90
700.02	127
