Mass spectrum: Putative_Momordin Iie; LC-ESI-QTOF; MS2; CE: 20-40eV;  [M+NH4]+
Name: Putative_Momordin Iie
Class: Triterpene saponins
Formula: C52H82O22
Exact mass: 1058.5298
SMILES: CC1(C)CCC2(CCC3(C)C(=CCC4C5(C)CCC(C(C)(C)C5CCC43C)OC6C(C(C(C(C(=O)O)O6)O)OC7C(C(C(CO7)O)O)O)OC8C(C(C(CO8)O)O)O)C2C1)C(=O)OC9C(C(C(C(CO)O9)O)O)O
InChI: InChI=1S/C52H82O22/c1-47(2)14-16-52(46(66)74-44-36(62)33(59)32(58)26(19-53)69-44)17-15-50(6)22(23(52)18-47)8-9-28-49(5)12-11-29(48(3,4)27(49)10-13-51(28,50)7)70-45-40(73-43-35(61)31(57)25(55)21-68-43)38(37(63)39(72-45)41(64)65)71-42-34(60)30(56)24(54)20-67-42/h8,23-40,42-45,53-63H,9-21H2,1-7H3,(H,64,65)
Instrument: Impact II, Bruker; Dionex 3000, Thermo Scientific
Instrument type: LC-ESI-QTOF
Ms type: MS2
Ion mode: POSITIVE
Ionization: ESI
Collision energy: 20-40eV
Column name: Acquity CSHC18
Retention time: 13.123 min
Base peak: 1076.5610
Precursor m/z: 1076.5610
Precursor type: [M+NH4]+
Precursor intensity: 55203.5
m/z	relative intensity
133.0747	7
221.1732	43
439.3365	999
