Mass spectrum: Phenylpyruvic acid; LC-ESI-ITFT; MS2; CE: 40;  [M-H]-
Name: Phenylpyruvic acid
Class: Benzenoids; Benzene and substituted derivatives; Phenylpyruvic acid derivatives
Formula: C9H8O3
Exact mass: 164.04734
SMILES: OC(=O)C(=O)CC1=CC=CC=C1
InChI: InChI=1S/C9H8O3/c10-8(9(11)12)6-7-4-2-1-3-5-7/h1-5H,6H2,(H,11,12)
Instrument: Thermo Scientific Q-Exactive Focus
Instrument type: LC-ESI-ITFT
Ms type: MS2
Ion mode: NEGATIVE
Ionization: ESI
Collision energy: 40
Column name: Acquity CSHC18
Retention time: 1.476 min
Base peak: 163.04007
Precursor m/z: 163.04007
Precursor type: [M-H]-
m/z	relative intensity
60.0728	912
73.0406	982
76.782	890
87.4272	836
93.5879	865
110.8592	833
155.581	900
164.4867	999
168.0705	903
173.9174	870
