Mass spectrum: Acetylcysteine; LC-ESI-ITFT; MS2; CE: 60;  [M-H]-
Name: Acetylcysteine
Class: Organic acids and derivatives; Carboxylic acids and derivatives; Amino acids, peptides, and analogues
Formula: C5H9NO3S
Exact mass: 163.03031
SMILES: CC(=O)N[C@@H](CS)C(O)=O
InChI: InChI=1S/C5H9NO3S/c1-3(7)6-4(2-10)5(8)9/h4,10H,2H2,1H3,(H,6,7)(H,8,9)/t4-/m0/s1
Instrument: Thermo Scientific Q-Exactive Focus
Instrument type: LC-ESI-ITFT
Ms type: MS2
Ion mode: NEGATIVE
Ionization: ESI
Collision energy: 60
Column name: Acquity CSHC18
Retention time: 2.026 min
Base peak: 162.02304
Precursor m/z: 162.02304
Precursor type: [M-H]-
m/z	relative intensity
68.0651	853
68.5256	847
73.501	878
94.3982	840
115.4604	880
116.7783	946
120.4824	999
120.6837	842
151.303	925
165.7552	890
