Mass spectrum: PYRIDOXAL; LC-ESI-QTOF; MS2; CE: 20;  [M-H]-
Name: PYRIDOXAL
Class: NA
Formula: C8H9NO3
Exact mass: 167.05824
SMILES: CC1=NC=C(CO)C(C=O)=C1O
InChI: InChI=1S/C8H9NO3/c1-5-8(12)7(4-11)6(3-10)2-9-5/h2,4,10,12H,3H2,1H3
Instrument: Agilent 6530Â Q-TOF LC/MS
Instrument type: LC-ESI-QTOF
Ms type: MS2
Ion mode: NEGATIVE
Ionization: ESI
Collision energy: 20
Column name: NA
Retention time: 0.200 min
Base peak: 166.04760
Precursor m/z: 166.04760
Precursor type: [M-H]-
Precursor intensity: 162
m/z	relative intensity
44.9969	122
79.0189	124
94.0284	130
107.0391	145
108.0709	164
120.0429	176
122.0619	378
136.0502	386
138.071	999
