Mass spectrum: (-)-Epicatechin; LC-ESI-QTOF; MS2; CE: 20-40eV;  [M+H]+
Name: (-)-Epicatechin
Class: flavonoid
Formula: C15H14O6
Exact mass: 290.0790
SMILES: C1=CC(=C(C=C1C2(C(CC3=C(C=C(C=C3O2)O)O)(O)[H])[H])O)O
InChI: InChI=1S/C15H14O6/c16-8-4-11(18)9-6-13(20)15(21-14(9)5-8)7-1-2-10(17)12(19)3-7/h1-5,13,15-20H,6H2
Instrument: Impact II, Bruker; Dionex 3000, Thermo Scientific
Instrument type: LC-ESI-QTOF
Ms type: MS2
Ion mode: POSITIVE
Ionization: ESI
Collision energy: 20-40eV
Column name: Acquity CSHC18
Retention time: 4.494 min
Base peak: 291.0849
Precursor m/z: 291.0849
Precursor type: [M+H]+
Precursor intensity: 2937
m/z	relative intensity
97.0638	34
109.0265	48
111.0427	73
137.0224	999
138.0257	196
139.0378	871
165.055	242
189.0538	31
215.0687	34
247.0595	34
