Mass spectrum: 8-iso Prostaglandin F2-beta; ESI-TOF; MS2; CE: 0.6458333;  [M+H]+
Name: 8-iso Prostaglandin F2-beta
Class: NA
Formula: C20H34O5
Exact mass: 354.24062
SMILES: CCCCCC(C=CC1C(CC(C1CC=CCCCC(=O)O)O)O)O
InChI: InChI=1S/C20H34O5/c1-2-3-6-9-15(21)12-13-17-16(18(22)14-19(17)23)10-7-4-5-8-11-20(24)25/h4,7,12-13,15-19,21-23H,2-3,5-6,8-11,14H2,1H3,(H,24,25)
Instrument: waters xevo g2 TOF
Instrument type: ESI-TOF
Ms type: MS2
Ion mode: POSITIVE
Ionization: ESI
Collision energy: 0.6458333
Column name: Acquity CSHC18
Retention time: 3.478 min
Base peak: 355.24862
Precursor m/z: 355.24862
Precursor type: [M+H]+
m/z	relative intensity
67.0544	59
79.0539	170
81.0696	214
83.084	23
92.058	21
93.0703	363
95.0852	122
97.1019	23
105.0711	574
107.0692	241
109.1025	45
117.0705	512
119.0859	350
121.1023	155
128.0636	68
129.0705	999
130.0733	72
131.0858	854
132.0902	70
133.1022	193
135.1167	111
141.0702	120
143.0858	458
144.0923	33
145.1018	534
146.1052	49
147.1166	132
149.096	97
155.0859	181
156.089	36
157.1016	602
159.1172	225
161.0968	101
163.1117	23
167.0713	85
169.1012	284
171.1159	549
173.1149	200
175.1105	106
181.1021	192
182.1043	22
183.1165	206
185.1144	225
187.1118	185
197.1329	74
199.1124	240
203.1068	55
209.1318	95
213.1687	103
215.1795	92
231.1379	55
235.1668	26
239.1792	143
241.1952	254
255.2085	89
257.1902	209
259.1854	58
265.2044	135
275.2001	150
276.2032	17
277.2131	32
283.2057	345
284.209	40
301.2165	874
302.22	92
316.1112	93
317.2077	11
318.1244	133
319.1842	66
331.1573	571
346.1257	241
347.1313	279
