Mass spectrum: Pentadecanoic acid; LC-ESI-ITFT; MS2; CE: 20;  [M-H]-
Name: Pentadecanoic acid
Class: Lipids and lipid-like molecules; Fatty Acyls; Fatty acids and conjugates
Formula: C15H30O2
Exact mass: 242.22458
SMILES: CCCCCCCCCCCCCCC(O)=O
InChI: InChI=1S/C15H30O2/c1-2-3-4-5-6-7-8-9-10-11-12-13-14-15(16)17/h2-14H2,1H3,(H,16,17)
Instrument: Thermo Scientific Q-Exactive Focus
Instrument type: LC-ESI-ITFT
Ms type: MS2
Ion mode: NEGATIVE
Ionization: ESI
Collision energy: 20
Column name: Acquity CSHC18
Retention time: NA
Base peak: 241.21730
Precursor m/z: 241.21730
Precursor type: [M-H]-
m/z	relative intensity
149.0084	215
150.9145	189
168.9251	194
194.9265	244
212.9372	125
223.0278	999
225.0071	85
225.0247	421
240.8705	63
241.217	358
