Mass spectrum: nadide; LC-ESI-QTOF; MS2; CE: -10, -35, -60V;  [M-H]-
Name: nadide
Class: NA
Formula: C21H27N7O14P2
Exact mass: 663.1091
SMILES: C1=CC(=C[N+](=C1)C2C(C(C(O2)COP(=O)([O-])OP(=O)(O)OCC3C(C(C(O3)N4C=NC5=C(N=CN=C54)N)O)O)O)O)C(=O)N
InChI: InChI=1S/C21H27N7O14P2/c22-17-12-19(25-7-24-17)28(8-26-12)21-16(32)14(30)11(41-21)6-39-44(36,37)42-43(34,35)38-5-10-13(29)15(31)20(40-10)27-3-1-2-9(4-27)18(23)33/h1-4,7-8,10-11,13-16,20-21,29-32H,5-6H2,(H5-,22,23,24,25,33,34,35,36,37)
Instrument: TripleToF 5600; Sciex
Instrument type: LC-ESI-QTOF
Ms type: MS2
Ion mode: NEGATIVE
Ionization: ESI
Collision energy: -10, -35, -60V
Column name: Acquity CSHC18
Retention time: 5.085 min
Base peak: 662.1010
Precursor m/z: 662.1010
Precursor type: [M-H]-
Precursor intensity: 33173.38
m/z	relative intensity
158.9229	184
272.9574	259
540.0505	999
