Mass spectrum: 4-Androsten-11Beta-ol-3, 17-dione; ESI-TOF; MS2; CE: 0.6458333;  [M+H]+
Name: 4-Androsten-11Beta-ol-3, 17-dione
Class: NA
Formula: C19H26O3
Exact mass: 302.18819
SMILES: O=C4\C=C3/[C@@](C)([C@H]2[C@@H](O)C[C@@]1(C(=O)CC[C@H]1[C@@H]2CC3)C)CC4
InChI: InChI=1S/C19H26O3/c1-18-8-7-12(20)9-11(18)3-4-13-14-5-6-16(22)19(14,2)10-15(21)17(13)18/h9,13-15,17,21H,3-8,10H2,1-2H3/t13-,14-,15-,17+,18-,19-/m0/s1
Instrument: waters xevo g2 TOF
Instrument type: ESI-TOF
Ms type: MS2
Ion mode: POSITIVE
Ionization: ESI
Collision energy: 0.6458333
Column name: Acquity CSHC18
Retention time: 3.079 min
Base peak: 303.19619
Precursor m/z: 303.19619
Precursor type: [M+H]+
m/z	relative intensity
67.0555	5
69.0351	7
79.0548	20
81.0703	40
83.0493	48
85.0653	7
91.0545	36
93.0701	79
95.0859	55
97.0649	220
98.069	15
99.0446	17
105.07	147
106.0731	14
107.086	108
108.0883	8
109.0639	105
110.0691	7
111.081	14
117.0703	53
119.0854	112
120.0894	10
121.0647	413
122.0681	36
123.0808	366
124.0842	31
128.0628	11
129.0698	39
130.0754	11
131.0859	103
132.0913	10
133.1012	122
134.1046	15
135.0806	98
136.0844	11
137.0966	30
141.0708	23
142.0775	11
143.0853	157
144.0896	24
145.1013	396
146.1054	48
147.0812	84
148.122	9
149.0965	67
150.1006	8
151.1121	71
152.1156	8
156.0919	11
157.1015	99
158.1058	16
159.1167	108
160.1195	13
161.0965	82
162.1022	12
163.1116	196
164.1152	23
165.0693	8
167.0861	19
168.0936	10
169.1012	76
170.1045	16
171.1166	110
172.1218	16
173.0963	74
174.0997	14
175.1117	154
176.1171	27
177.1259	26
179.0854	15
180.0922	4
181.1007	45
182.1069	13
183.1172	109
184.1215	18
185.1323	120
186.1365	18
187.1147	41
188.1129	6
189.1275	111
190.1312	15
191.1056	6
192.0923	5
194.1081	16
195.1169	75
196.1236	16
197.0969	138
198.1016	23
199.1479	41
200.1157	5
201.1271	50
202.1335	9
203.143	30
205.097	5
207.1172	62
208.1219	16
209.1315	137
210.1366	24
211.1122	47
212.1083	14
213.1367	33
215.1436	25
217.1572	5
219.1187	5
220.1241	11
221.1328	24
223.1475	55
224.1541	12
225.1406	50
226.1664	17
227.1432	139
228.1467	24
229.1556	7
234.1429	11
238.1328	5
239.1433	195
240.1469	38
241.1588	75
242.1613	18
243.1742	90
244.1795	15
245.1527	8
249.1642	114
250.1684	23
252.1515	83
253.1541	11
257.1523	34
258.1586	12
259.1692	19
267.1744	543
268.1773	114
269.1816	14
270.1647	6
285.1856	483
286.1888	103
287.1918	12
291.0683	4
303.196	999
304.1997	219
