Mass spectrum: 1,2-didocosahexaenoyl-sn-glycero-3-phosphocholine; ESI-TOF; MS2; CE: 6.0000000;  [M+H]+
Name: 1,2-didocosahexaenoyl-sn-glycero-3-phosphocholine
Class: NA
Formula: C52H80NO8P
Exact mass: 877.56216
SMILES: [H]C(=C([H])C([H])([H])C([H])=C([H])C([H])([H])C([H])=C([H])C([H])([H])C([H])([H])[H])C([H])([H])C([H])=C([H])C([H])([H])C([H])=C([H])C([H])([H])C([H])=C([H])C([H])([H])C([H])([H])C(=O)OC([H])([H])C([H])(OC(=O)C([H])([H])C([H])([H])C([H])=C([H])C([H])([H])C([H])=C([H])C([H])([H])C([H])=C([H])C([H])([H])C([H])=C([H])C([H])([H])C([H])=C([H])C([H])([H])C([H])=C([H])C([H])([H])C([H])([H])[H])C([H])([H])OP(=O)([O-])OC([H])([H])C([H])([H])[N+](C([H])([H])[H])(C([H])([H])[H])C([H])([H])[H]
InChI: InChI=1S/C52H80NO8P/c1-6-8-10-12-14-16-18-20-22-24-26-28-30-32-34-36-38-40-42-44-51(54)58-48-50(49-60-62(56,57)59-47-46-53(3,4)5)61-52(55)45-43-41-39-37-35-33-31-29-27-25-23-21-19-17-15-13-11-9-7-2/h8-11,14-17,20-23,26-29,32-35,38-41,50H,6-7,12-13,18-19,24-25,30-31,36-37,42-49H2,1-5H3
Instrument: waters xevo g2 TOF
Instrument type: ESI-TOF
Ms type: MS2
Ion mode: POSITIVE
Ionization: ESI
Collision energy: 6.0000000
Column name: Acquity CSHC18
Retention time: 10.664 min
Base peak: 878.57016
Precursor m/z: 878.57016
Precursor type: [M+H]+
m/z	relative intensity
184.0741	9
221.0854	4
279.0477	43
279.5486	20
280.0472	11
280.5468	4
281.0523	69
282.0527	18
283.0501	11
294.6409	11
297.0443	3
313.0786	6
341.0186	3
367.195	208
368.1982	51
369.201	6
383.1668	41
384.1699	7
415.0353	9
416.0369	4
417.0348	2
458.7619	163
459.2643	45
459.7655	30
460.2677	4
503.1079	80
504.1092	40
505.1004	29
506.1074	7
507.1042	3
521.1369	26
522.1397	8
523.1324	3
523.7398	17
524.2417	9
531.7278	6
532.2291	3
539.1645	17
543.1193	42
544.1171	15
550.33	338
551.3334	54
552.3354	15
564.199	20
565.199	10
566.1956	3
587.3833	9
603.0912	7
619.0625	3
621.0609	4
627.0198	5
632.0095	3
686.183	5
687.1846	3
691.1351	4
692.1357	3
695.5029	7
696.5053	4
717.8283	9
718.3273	14
718.8249	9
719.8298	2
731.9567	6
732.4585	8
732.9638	4
878.5688	999
879.5723	630
