Mass spectrum: Homocitrulline; ESI-TOF; MS2; CE: 6.0000000;  [M+H]+
Name: Homocitrulline
Class: NA
Formula: C7H15N3O3
Exact mass: 189.11134
SMILES: NC(CCCCNC(N)=O)C(O)=O
InChI: InChI=1S/C7H15N3O3/c8-5(6(11)12)3-1-2-4-10-7(9)13/h5H,1-4,8H2,(H,11,12)(H3,9,10,13)
Instrument: waters xevo g2 TOF
Instrument type: ESI-TOF
Ms type: MS2
Ion mode: POSITIVE
Ionization: ESI
Collision energy: 6.0000000
Column name: Acquity CSHC18
Retention time: 0.544 min
Base peak: 190.11934
Precursor m/z: 190.11934
Precursor type: [M+H]+
m/z	relative intensity
82.0658	3
84.0815	233
85.085	14
98.0607	17
100.023	26
101.0798	2
110.0606	20
127.0872	470
128.0715	85
129.1017	19
130.087	45
131.0895	2
140.9625	6
144.0365	30
145.0977	22
147.1139	42
148.1174	2
173.0923	999
174.0948	95
175.098	10
182.9857	22
187.0455	2
190.1189	352
191.1219	33
