Mass spectrum: Prostaglandin E1 Alcohol; ESI-TOF; MS2; CE: 0.6458333;  [M+H]+
Name: Prostaglandin E1 Alcohol
Class: NA
Formula: C20H36O4
Exact mass: 340.26136
SMILES: O=C1[C@H](CCCCCCCO)[C@@H](/C=C/[C@@H](O)CCCCC)[C@H](O)C1
InChI: InChI=1S/C20H36O4/c1-2-3-7-10-16(22)12-13-18-17(19(23)15-20(18)24)11-8-5-4-6-9-14-21/h12-13,16-18,20-22,24H,2-11,14-15H2,1H3/b13-12+/t16-,17+,18+,20+/m0/s1
Instrument: waters xevo g2 TOF
Instrument type: ESI-TOF
Ms type: MS2
Ion mode: POSITIVE
Ionization: ESI
Collision energy: 0.6458333
Column name: Acquity CSHC18
Retention time: 3.727 min
Base peak: 341.26936
Precursor m/z: 341.26936
Precursor type: [M+H]+
m/z	relative intensity
67.0535	254
81.0704	641
83.0858	79
85.0655	51
91.0547	431
92.0575	25
93.0705	630
94.0756	31
95.0863	798
97.0661	75
105.0708	517
107.087	437
109.1024	370
117.072	100
119.0868	437
121.1024	345
131.0861	245
133.1022	335
134.1067	25
135.1166	245
137.0964	30
143.0847	68
147.0984	209
149.1339	131
157.1023	90
159.1191	110
161.1323	250
171.1172	110
175.1481	102
177.1289	151
187.1473	60
189.1625	52
191.1426	47
203.1426	123
217.1608	31
221.1535	60
251.2374	75
253.1107	24
269.2261	66
287.237	397
305.2471	999
306.2501	152
307.243	79
323.2577	164
343.1922	123
