Mass spectrum: 7-Dehydrocholesterol; APCI-ITFT; MS2; CE: 35 CID;  [M+H-H2O]+
Name: 7-Dehydrocholesterol
Class: NA
Formula: C27H44O
Exact mass: 384.33922
SMILES: CC(C)CCCC(C)C1CCC2C1(CCC3C2=CC=C4C3(CCC(C4)O)C)C
InChI: InChI=1S/C27H44O/c1-18(2)7-6-8-19(3)23-11-12-24-22-10-9-20-17-21(28)13-15-26(20,4)25(22)14-16-27(23,24)5/h9-10,18-19,21,23-25,28H,6-8,11-17H2,1-5H3
Instrument: Orbitrap Elite
Instrument type: APCI-ITFT
Ms type: MS2
Ion mode: POSITIVE
Ionization: APCI
Collision energy: 35 CID
Column name: Acquity CSHC18
Retention time: 0.101 min
Base peak: 367.33630
Precursor m/z: 367.33630
Precursor type: [M+H-H2O]+
Precursor intensity: 717248100
m/z	relative intensity
81.0698	83
83.0855	47
93.0698	27
95.0853	147
97.1011	47
105.0699	49
107.0855	52
109.1012	102
111.1167	43
119.0855	47
121.101	50
123.1166	54
131.0853	52
133.1012	70
135.117	50
145.1015	288
147.1167	122
149.1329	40
157.1013	149
158.1048	101
159.1173	495
160.1202	85
161.1329	95
171.117	38
173.1326	122
175.1482	37
185.1323	54
187.1481	43
193.1949	25
199.1481	144
201.1634	36
205.1948	26
213.1633	120
215.1792	36
219.2109	32
227.1795	79
241.1961	86
255.2102	89
257.2272	33
259.2417	31
271.2425	36
285.2574	26
311.2729	32
366.3243	615
367.306	106
367.3374	999
