Mass spectrum: Coniferyl aldehyde; LC-ESI-QTOF; MS2; CE: -10, -35, -60V;  [M-H]-
Name: Coniferyl aldehyde
Class: NA
Formula: C10H10O3
Exact mass: 178.0630
SMILES: COC1=C(C=CC(=C1)C=CC=O)O
InChI: InChI=1S/C10H10O3/c1-13-10-7-8(3-2-6-11)4-5-9(10)12/h2-7,12H,1H3
Instrument: TripleToF 5600; Sciex
Instrument type: LC-ESI-QTOF
Ms type: MS2
Ion mode: NEGATIVE
Ionization: ESI
Collision energy: -10, -35, -60V
Column name: Acquity CSHC18
Retention time: 9.691 min
Base peak: 177.0573
Precursor m/z: 177.0573
Precursor type: [M-H]-
Precursor intensity: 85326.44
m/z	relative intensity
101.021	13
127.0796	49
161.0187	29
162.0341	999
163.0329	189
171.0674	34
177.051	869
177.0566	868
