Mass spectrum: (+)-15-epi Cloprostenol; ESI-TOF; MS2; CE: 6.0000000;  [M+H]+
Name: (+)-15-epi Cloprostenol
Class: NA
Formula: C22H29ClO6
Exact mass: 424.16527
SMILES: OC(=O)CCC/C=C\CC1C(O)CC(O)[C@@H]1\C=C\[C@H](O)COc1cccc(Cl)c1
InChI: InChI=1S/C22H29ClO6/c23-15-6-5-7-17(12-15)29-14-16(24)10-11-19-18(20(25)13-21(19)26)8-3-1-2-4-9-22(27)28/h1,3,5-7,10-12,16,18-21,24-26H,2,4,8-9,13-14H2,(H,27,28)/b3-1-,11-10+/t16-,18?,19+,20?,21?/m0/s1
Instrument: waters xevo g2 TOF
Instrument type: ESI-TOF
Ms type: MS2
Ion mode: POSITIVE
Ionization: ESI
Collision energy: 6.0000000
Column name: Acquity CSHC18
Retention time: 3.489 min
Base peak: 425.17327
Precursor m/z: 425.17327
Precursor type: [M+H]+
m/z	relative intensity
83.0496	2
91.0534	7
93.07	2
107.0852	2
115.0547	2
116.0628	2
117.0709	33
119.0859	2
128.0209	28
129.0702	2
131.0854	25
133.0839	14
135.0789	2
141.0404	2
143.0859	21
145.1016	42
147.1161	2
153.0708	2
154.0774	2
155.0862	2
157.1004	22
159.0798	39
161.0962	76
169.0989	2
171.1175	50
177.0926	14
179.1052	13
181.1023	2
183.1168	62
187.1138	25
189.1276	148
192.0939	2
195.1023	44
198.1388	16
199.1096	53
201.1284	22
205.0858	22
207.117	2
214.0537	47
215.0976	35
217.1217	123
219.1364	30
223.0592	124
224.0565	32
225.1285	25
233.1552	48
243.1384	644
244.1414	90
248.0486	2
261.1061	251
262.1522	66
275.1652	21
277.0547	2
279.1605	999
280.1636	176
293.1737	42
299.0941	2
353.1297	18
371.1397	119
372.1454	20
373.1372	34
388.0564	79
389.1533	74
390.1064	18
406.0708	68
411.1635	11
418.0554	2
