Mass spectrum: L-Homocysteic acid; ESI-TOF; MS2; CE: 0.6458333;  [M+H]+
Name: L-Homocysteic acid
Class: NA
Formula: C4H9NO5S
Exact mass: 183.02014
SMILES: NC(CCS(O)(=O)=O)C(O)=O
InChI: InChI=1S/C4H9NO5S/c5-3(4(6)7)1-2-11(8,9)10/h3H,1-2,5H2,(H,6,7)(H,8,9,10)
Instrument: waters xevo g2 TOF
Instrument type: ESI-TOF
Ms type: MS2
Ion mode: POSITIVE
Ionization: ESI
Collision energy: 0.6458333
Column name: Acquity CSHC18
Retention time: 0.622 min
Base peak: 184.02814
Precursor m/z: 184.02814
Precursor type: [M+H]+
m/z	relative intensity
56.0509	83
102.129	1
110.9776	475
124.957	1
127.9799	86
129.0205	69
139.0249	1
140.0192	1
160.0054	10
163.9767	1
175.9696	118
184.0284	999
185.0314	55
186.0258	27
191.942	33
192.9493	109
198.0435	1
203.9643	35
206.0001	127
208.9438	13
209.9532	24
210.9606	290
221.9762	301
222.9615	1
224.9762	1
232.9676	1
233.9757	1
237.9483	50
239.9864	105
254.9527	1
257.9586	1
263.0017	1
268.9662	1
269.9707	1
271.9735	1
273.9666	1
277.0179	72
278.9726	1
280.9724	1
282.9472	1
292.9905	165
293.9923	17
294.9907	45
302.2014	1
331.9802	176
332.9256	1
349.0364	1
367.0484	131
368.0508	1
369.0457	1
374.9635	14
375.9696	77
389.0253	18
391.0057	24
404.9951	156
406.9942	1
415.9645	1
418.9702	10
419.9593	162
420.9667	213
421.9666	38
422.9681	82
474.8826	11
558.9846	23
572.0425	7
574.0298	24
588.0157	30
589.0168	3
590.0113	5
600.9755	1
602.9795	192
603.9839	74
604.9815	32
605.9842	1
733.0873	1
734.0915	1
735.0862	1
757.0473	1
784.0056	1
785.9987	75
786.9968	22
787.9923	13
