Mass spectrum: N-ACETYLSEROTONIN; LC-ESI-QTOF; MS2; CE: 20;  [M+H]+
Name: N-ACETYLSEROTONIN
Class: NA
Formula: C12H14N2O2
Exact mass: 218.10553
SMILES: CC(=O)NCCC1=CNC2=C1C=C(O)C=C2
InChI: InChI=1S/C12H14N2O2/c1-8(15)13-5-4-9-7-14-12-3-2-10(16)6-11(9)12/h2-3,6-7,14,16H,4-5H2,1H3,(H,13,15)
Instrument: Agilent 6530Â Q-TOF LC/MS
Instrument type: LC-ESI-QTOF
Ms type: MS2
Ion mode: POSITIVE
Ionization: ESI
Collision energy: 20
Column name: NA
Retention time: 0.200 min
Base peak: 219.11091
Precursor m/z: 219.11091
Precursor type: [M+H]+
Precursor intensity: 132.5
m/z	relative intensity
43.0322	21
44.0317	22
54.034	22
60.044	22
65.0468	23
67.0612	24
77.0576	25
78.0417	26
79.0678	26
80.0492	27
86.0731	27
89.0521	27
90.0527	28
91.0698	29
92.0487	30
93.0439	30
94.0471	31
103.0684	32
104.0511	34
105.1002	35
106.0601	36
107.0569	38
115.218	39
115.6295	42
115.9244	44
116.087	44
117.0926	45
117.5134	47
117.8224	47
118.0602	54
119.0386	59
120.0537	66
128.0476	66
130.0921	66
131.0876	66
132.3764	68
132.8982	74
133.1064	79
134.0702	80
136.9121	88
140.0583	93
141.0605	107
142.1038	122
143.0893	127
144.0679	148
145.0636	150
146.0524	163
148.0853	165
156.0818	195
158.057	199
159.1107	206
159.3602	245
159.6162	402
159.8743	432
161.1762	438
166.0599	458
174.1054	489
184.0827	661
190.0832	723
201.103	920
202.1161	999
