Mass spectrum: Kaempferol 3,7-di-O-rhamnoside; LC-ESI-ITFT; MS2; CE: 30;  [M+H]+
Name: Kaempferol 3,7-di-O-rhamnoside
Class: NA
Formula: C27H30O14
Exact mass: 578.1636
SMILES: CC1C(C(C(C(O1)OC2=CC(=C3C(=C2)OC(=C(C3=O)OC4C(C(C(C(O4)C)O)O)O)C5=CC=C(C=C5)O)O)O)O)O
InChI: InChI=1S/C27H30O14/c1-9-17(30)20(33)22(35)26(37-9)39-13-7-14(29)16-15(8-13)40-24(11-3-5-12(28)6-4-11)25(19(16)32)41-27-23(36)21(34)18(31)10(2)38-27/h3-10,17-18,20-23,26-31,33-36H,1-2H3
Instrument: q exactive focus thermo
Instrument type: LC-ESI-ITFT
Ms type: MS2
Ion mode: POSITIVE
Ionization: ESI
Collision energy: 30
Column name: Acquity CSHC18
Retention time: 7.227 min
Base peak: 579.1700
Precursor m/z: 579.1700
Precursor type: [M+H]+
Precursor intensity: 1236057000
m/z	relative intensity
111.0445	1
129.0341	34
129.0452	35
129.0549	35
129.0703	39
137.0232	1
137.0603	1
153.0181	7
165.0182	1
183.0289	1
239.0921	1
241.0481	1
258.0516	1
287.0552	999
288.0587	163
289.0584	24
290.0646	2
309.0366	1
329.0662	1
339.1019	1
351.0831	1
433.1094	165
434.1196	36
435.1168	8
436.1148	1
441.1352	10
442.1373	1
455.0966	3
579.1659	7
