Mass spectrum: Choline; ESI-TOF; MS2; CE: 0.6458333;  [M+H]+
Name: Choline
Class: NA
Formula: [C5H14NO]+
Exact mass: 104.10699
SMILES: C[N+](C)(C)CCO
InChI: InChI=1S/C5H14NO/c1-6(2,3)4-5-7/h7H,4-5H2,1-3H3/q+1
Instrument: waters xevo g2 TOF
Instrument type: ESI-TOF
Ms type: MS2
Ion mode: POSITIVE
Ionization: ESI
Collision energy: 0.6458333
Column name: Acquity CSHC18
Retention time: 0.473 min
Base peak: 105.11554
Precursor m/z: 105.11554
Precursor type: [M+H]+
m/z	relative intensity
72.9379	82
72.9382	175
97.9693	841
104.1077	999
105.1111	61
113.9641	675
138.9901	3
138.9904	3
168.9862	3
182.9855	3
207.2073	3
