Mass spectrum: L-Tyrosine; LC-ESI-ITFT; MS2; CE: 10;  [M+H]+
Name: L-Tyrosine
Class: Organic acids and derivatives; Carboxylic acids and derivatives; Amino acids, peptides, and analogues
Formula: C9H11NO3
Exact mass: 181.07389
SMILES: N[C@@H](CC1=CC=C(O)C=C1)C(O)=O
InChI: InChI=1S/C9H11NO3/c10-8(9(12)13)5-6-1-3-7(11)4-2-6/h1-4,8,11H,5,10H2,(H,12,13)/t8-/m0/s1
Instrument: Thermo Scientific Q-Exactive Focus
Instrument type: LC-ESI-ITFT
Ms type: MS2
Ion mode: POSITIVE
Ionization: ESI
Collision energy: 10
Column name: Acquity CSHC18
Retention time: 0.348 min
Base peak: 182.08118
Precursor m/z: 182.08118
Precursor type: [M+H]+
m/z	relative intensity
91.0545	37
117.9906	22
119.0493	122
123.0442	231
136.0011	30
136.0757	999
147.044	160
165.0546	664
182.0753	31
182.0811	101
