Mass spectrum: chlorogenic acid; LC-ESI-ITFT; MS2; CE: 0.3;  [M+H]+
Name: chlorogenic acid
Class: hydroxycinnamates
Formula: C16H18O9
Exact mass: 354.0951
SMILES: C1C(C(C(CC1(C(=O)O)O)OC(=O)C=CC2=CC(=C(C=C2)O)O)O)O
InChI: InChI=1S/C16H18O9/c17-9-3-1-8(5-10(9)18)2-4-13(20)25-12-7-16(24,15(22)23)6-11(19)14(12)21/h1-5,11-12,14,17-19,21,24H,6-7H2,(H,22,23)
Instrument: LTQ-Orbitrap XL hybrid mass spectrometer (Thermo Scientific)
Instrument type: LC-ESI-ITFT
Ms type: MS2
Ion mode: POSITIVE
Ionization: ESI
Collision energy: 0.3
Column name: Acquity CSHC18
Retention time: 5.726 min
Base peak: 355.1033
Precursor m/z: 355.1033
Precursor type: [M+H]+
Precursor intensity: 15282490
m/z	relative intensity
100.2826	2
103.1723	3
105.0349	2
114.4606	2
117.0335	8
135.0442	7
145.0287	44
161.2064	5
161.2184	3
161.8383	3
162.1376	10
162.4375	7
162.5575	5
162.7378	3
162.7981	2
162.871	2
162.873	2
163.0196	3
163.0208	3
163.0227	3
163.0259	6
163.0289	5
163.0312	8
163.0338	8
163.0394	999
163.0463	9
163.0494	6
163.051	4
163.0541	4
163.3416	5
163.5238	3
163.6453	5
163.949	6
164.5593	3
194.5021	1
194.5063	2
194.5261	2
194.5477	1
196.1466	9
286.5908	3
286.6152	3
323.7631	2
335.8605	2
337.0933	4
