Mass spectrum: Quercetin; LC-ESI-QTOF; MS2; CE: 50eV;  [M+H]+
Name: Quercetin
Class: Flavonol
Formula: C15H10O7
Exact mass: 302.0427
SMILES: C1=CC(=C(C=C1C2=C(C(=O)C3=C(C=C(C=C3O2)O)O)O)O)O
InChI: InChI=1S/C15H10O7/c16-7-4-10(19)12-11(5-7)22-15(14(21)13(12)20)6-1-2-8(17)9(18)3-6/h1-5,16-19,21H
Instrument: TIMS-TOF Pro, Bruker Daltonik; Elute UHPLC System, Bruker Daltonik
Instrument type: LC-ESI-QTOF
Ms type: MS2
Ion mode: POSITIVE
Ionization: ESI
Collision energy: 50eV
Column name: Acquity CSHC18
Retention time: 6.746 min
Base peak: 303.0464
Precursor m/z: 303.0464
Precursor type: [M+H]+
Precursor intensity: 237052.9
m/z	relative intensity
27.7833	2
41.0333	1
51.0228	1
68.0376	1
68.9963	9
77.0341	1
81.0326	3
90.0437	1
97.029	4
109.0265	4
117.0686	3
121.0276	3
123.0256	2
127.0367	1
135.0509	1
137.0217	10
141.0325	2
149.0243	2
153.0174	40
154.018	3
155.0476	10
159.0479	2
163.002	1
163.0385	3
165.0197	6
173.0601	8
179.0365	2
183.0135	1
183.0435	5
194.0178	1
201.053	10
204.0335	1
215.0243	1
226.5731	1
229.0493	12
239.032	1
246.0518	2
257.0428	5
274.0479	2
285.0403	4
298.265	1
302.2321	3
303.0049	8
303.0464	999
