Mass spectrum: Hippuric acid; ESI-TOF; MS2; CE: 0.6458333;  [M+H]+
Name: Hippuric acid
Class: NA
Formula: C9H9NO3
Exact mass: 179.05824
SMILES: OC(=O)CNC(=O)C1=CC=CC=C1
InChI: InChI=1S/C9H9NO3/c11-8(12)6-10-9(13)7-4-2-1-3-5-7/h1-5H,6H2,(H,10,13)(H,11,12)
Instrument: waters xevo g2 TOF
Instrument type: ESI-TOF
Ms type: MS2
Ion mode: POSITIVE
Ionization: ESI
Collision energy: 0.6458333
Column name: Acquity CSHC18
Retention time: 1.997 min
Base peak: 180.06624
Precursor m/z: 180.06624
Precursor type: [M+H]+
m/z	relative intensity
67.9814	3
77.0396	740
78.0435	32
95.0497	27
105.0343	148
106.0512	124
107.0565	18
113.9869	26
118.0656	285
119.0694	13
127.9798	3
129.0531	24
130.0649	7
132.9743	33
134.0607	25
134.9762	13
136.9898	46
143.9633	3
148.9921	13
149.9771	10
150.985	12
162.0216	9
163.0334	26
174.0234	999
175.0259	49
175.9799	59
176.9875	72
178.0196	42
180.0816	10
182.1432	3
186.0745	30
188.0023	27
188.9883	27
189.9951	158
191.0029	320
192.0342	151
193.9909	87
202.0481	35
203.0272	19
205.0059	44
205.9883	32
206.9981	129
208.0045	82
218.063	493
219.0184	246
220.0205	36
221.0174	53
224.0301	29
225.0243	21
226.0192	21
236.0233	44
237.0258	5
251.0881	4
253.0189	246
254.0682	19
263.0103	14
265.0084	5
267.0297	157
268.0386	242
269.0431	31
270.0431	121
272.0386	40
273.1324	15
282.0194	124
285.0462	7
292.5257	24
293.0791	32
294.0828	20
295.1032	283
296.0615	122
297.0598	29
308.0457	33
309.0623	202
310.0689	330
311.0403	140
320.0613	43
323.049	254
324.0569	120
325.0629	409
326.0671	90
327.0643	76
328.0632	10
329.0609	23
331.0602	4
339.0925	73
340.0516	136
341.0538	13
342.4877	10
353.0809	52
363.1612	3
364.0514	3
367.0438	7
368.0454	15
369.0528	5
371.0538	37
373.0503	17
375.0554	2
382.0955	3
383.0827	84
389.0196	28
390.0269	122
391.0349	25
392.0368	4
394.2125	6
397.0709	661
398.0743	147
399.0753	13
401.0634	12
410.0391	5
412.0365	103
414.0412	4
432.0186	15
432.518	10
435.0233	74
450.9885	26
452.0594	5
452.9995	11
457.0062	43
466.9615	33
467.9691	9
472.9824	8
584.0452	20
585.0469	24
586.048	7
600.024	15
614.0764	35
616.0738	10
629.0464	19
631.0544	19
632.0479	8
635.0559	131
636.0578	57
637.0602	7
645.0241	6
646.0225	64
647.0283	15
648.0255	10
652.0311	5
785.1585	11
814.1136	37
815.1157	21
837.0968	8
