Mass spectrum: 3,7,4'-Tri-O-methylquercetin; LC-ESI-QTOF; MS2; CE: 50eV;  [M-H]-
Name: 3,7,4'-Tri-O-methylquercetin
Class: Flavonol
Formula: C18H16O7
Exact mass: 344.0896
SMILES: COC1=C(C=C(C=C1)C2=C(C(=O)C3=C(C=C(C=C3O2)OC)O)OC)O
InChI: InChI=1S/C18H16O7/c1-22-10-7-12(20)15-14(8-10)25-17(18(24-3)16(15)21)9-4-5-13(23-2)11(19)6-9/h4-8,19-20H,1-3H3
Instrument: TIMS-TOF Pro, Bruker Daltonik; Elute UHPLC System, Bruker Daltonik
Instrument type: LC-ESI-QTOF
Ms type: MS2
Ion mode: NEGATIVE
Ionization: ESI
Collision energy: 50eV
Column name: Acquity CSHC18
Retention time: 9.521 min
Base peak: 343.0761
Precursor m/z: 343.0761
Precursor type: [M-H]-
Precursor intensity: 91361.69
m/z	relative intensity
63.4751	4
65.0029	41
84.8964	4
91.0175	13
95.012	4
106.0035	3
109.028	5
117.0328	4
119.013	11
120.272	4
121.0288	15
121.9986	7
126.0424	4
127.0036	3
131.0133	4
135.001	6
136.0141	8
141.3147	4
145.0275	16
147.0071	6
149.993	8
158.0346	33
165.0158	94
165.5854	4
166.0219	12
168.4831	3
169.0259	11
170.0339	12
171.5072	11
174.2021	9
178.2585	4
179.0825	6
182.0339	33
183.5581	5
186.0251	7
186.604	9
187.9202	5
197.0216	6
198.0299	43
198.5361	6
207.7426	5
209.6262	5
214.0253	28
215.0299	5
226.0223	12
227.0284	7
242.019	25
243.0232	6
254.014	12
257.0562	12
269.0439	9
299.0539	15
300.0609	4
301.0504	3
313.0294	885
313.2136	3
313.4657	4
314.0345	113
327.0475	12
327.5182	4
328.0548	999
328.3734	4
328.5434	4
328.6434	4
328.7663	4
328.8578	5
329.058	144
330.057	13
331.8239	3
342.8133	4
343.0761	568
343.3478	4
