Mass spectrum: N-Glycolylneuraminic acid; LC-ESI-QTOF; MS2; CE: 60;  [M-H]-
Name: N-Glycolylneuraminic acid
Class: Neuraminic acids
Formula: C11H19NO10
Exact mass: 325.10090
SMILES: OC[C@@H](O)[C@@H](O)[C@@H]1O[C@@](O)(C[C@H](O)[C@H]1NC(=O)CO)C(O)=O
InChI: InChI=1S/C11H19NO10/c13-2-5(16)8(18)9-7(12-6(17)3-14)4(15)1-11(21,22-9)10(19)20/h4-5,7-9,13-16,18,21H,1-3H2,(H,12,17)(H,19,20)/t4-,5+,7+,8+,9+,11-/m0/s1
Instrument: impact II
Instrument type: LC-ESI-QTOF
Ms type: MS2
Ion mode: NEGATIVE
Ionization: ESI
Collision energy: 60
Column name: Acquity CSHC18
Retention time: 1.675 min
Base peak: 324.09400
Precursor m/z: 324.09400
Precursor type: [M-H]-
m/z	relative intensity
57.7751	889
87.5246	999
