Mass spectrum: Sorbitol; ESI-TOF; MS2; CE: 0.6458333;  [M+H]+
Name: Sorbitol
Class: NA
Formula: C6H14O6
Exact mass: 182.07904
SMILES: OCC(O)C(O)C(O)C(O)CO
InChI: InChI=1S/C6H14O6/c7-1-3(9)5(11)6(12)4(10)2-8/h3-12H,1-2H2
Instrument: waters xevo g2 TOF
Instrument type: ESI-TOF
Ms type: MS2
Ion mode: POSITIVE
Ionization: ESI
Collision energy: 0.6458333
Column name: Acquity CSHC18
Retention time: 0.560 min
Base peak: 183.08704
Precursor m/z: 183.08704
Precursor type: [M+H]+
m/z	relative intensity
69.0348	314
70.038	11
71.0495	1
73.0295	38
83.0501	169
84.0531	1
85.0296	260
87.0453	36
89.0085	32
98.0136	29
99.045	56
101.0606	1
102.0161	147
103.0503	8
111.0448	327
112.0348	10
113.0252	56
114.9715	176
115.9586	66
120.0265	353
124.9573	74
127.0409	1
129.0532	125
130.0585	1
131.0595	1
131.5345	1
132.027	46
137.9882	9
141.0319	74
143.0072	20
143.9514	91
147.0637	91
148.0696	1
154.0443	19
156.0376	291
156.5389	19
158.9968	98
162.9711	15
164.0228	1
172.862	29
173.9617	999
174.9691	134
183.0872	42
184.0908	1
188.094	1
189.0951	152
193.0563	1
194.0773	1
194.5736	1
195.0723	1
195.9764	23
199.9773	719
201.0427	1
202.2675	200
203.0623	1
204.058	1
205.0687	261
206.0302	67
207.0737	1
209.0497	1
209.5493	1
210.0473	1
210.5482	1
211.0477	1
211.5495	1
212.0706	1
212.5482	1
213.0442	1
221.0338	180
224.9886	32
230.448	43
233.0126	22
235.0105	21
235.9994	255
237.0064	653
237.5086	1
239.0075	89
246.0188	1
252.0127	39
253.0507	1
254.0092	966
255.0115	51
268.0246	84
269.0293	1
277.0253	1
280.0249	60
282.0037	1
283.0491	10
285.0126	1
291.0756	1
292.0252	119
293.0929	1
294.03	1
296.0198	1
297.0261	1
304.0231	1
309.0275	22
319.5595	1
320.0378	32
322.0352	354
323.0375	27
331.9844	1
342.0596	1
346.9524	35
348.9522	1
350.9461	90
354.5017	1
355.0028	1
364.1131	1
368.124	1
389.1237	253
390.127	1
391.1273	1
398.0523	44
399.0569	11
403.1121	185
404.9586	10
414.083	1
416.0836	1
417.0881	1
418.0773	360
419.0836	413
420.0841	1
421.0852	68
442.0344	1
470.9904	1
471.9972	13
503.0444	1
580.1279	1
