Mass spectrum: Hydrocinnamic acid; LC-ESI-QTOF; MS2; CE: 15.00;  [M-H2O+H]+
Name: Hydrocinnamic acid
Class: NA
Formula: C9H10O2
Exact mass: 150.0681
SMILES: C1=CC=C(C=C1)CCC(=O)O
InChI: InChI=1S/C9H10O2/c10-9(11)7-6-8-4-2-1-3-5-8/h1-5H,6-7H2,(H,10,11)
Instrument: Bruker MicrOTOF-Q
Instrument type: LC-ESI-QTOF
Ms type: MS2
Ion mode: POSITIVE
Ionization: ESI
Collision energy: 15.00
Column name: Acquity CSHC18
Retention time: NA
Base peak: 133.0648
Precursor m/z: 133.0648
Precursor type: [M-H2O+H]+
m/z	relative intensity
91.0485	95
92.0518	13
103.0501	136
104.0518	17
104.6195	1
104.9086	3
104.9733	2
105.0657	999
105.1996	2
105.3058	4
105.4259	1
105.5425	2
106.0664	67
