Mass spectrum: Ginkgolic acid C13:0; LC-ESI-QFT; MS2; CE: 15,30,45 (NCE);  [M+2Na-H]+
Name: Ginkgolic acid C13:0
Class: NA
Formula: C20H32O3
Exact mass: 320.2351
SMILES: CCCCCCCCCCCCCC1=C(C(O)=O)C(O)=CC=C1
InChI: InChI=1S/C20H32O3/c1-2-3-4-5-6-7-8-9-10-11-12-14-17-15-13-16-18(21)19(17)20(22)23/h13,15-16,21H,2-12,14H2,1H3,(H,22,23)
Instrument: QE Focus, Thermo Scientfic; UPLC I-Class, Waters
Instrument type: LC-ESI-QFT
Ms type: MS2
Ion mode: POSITIVE
Ionization: ESI
Collision energy: 15,30,45 (NCE)
Column name: Acquity CSHC18
Retention time: 6.482 min
Base peak: 365.2066
Precursor m/z: 365.2066
Precursor type: [M+2Na-H]+
Precursor intensity: 718745
m/z	relative intensity
57.8762	57
59.6475	59
65.9625	56
68.1425	57
77.1335	57
82.4413	71
89.0602	83
107.9295	67
151.0976	104
293.9719	74
365.2079	999
