Mass spectrum: genistein 8-C-glucoside; LC-ESI-ITFT; MS2; CE: 0.3;  [M-H]-
Name: genistein 8-C-glucoside
Class: isoflavones
Formula: C21H20O10
Exact mass: 432.1056
SMILES: C1=CC(=CC=C1C2=COC3=C(C2=O)C(=CC(=C3C4C(C(C(C(O4)CO)O)O)O)O)O)O
InChI: InChI=1S/C21H20O10/c22-6-13-17(27)18(28)19(29)21(31-13)15-12(25)5-11(24)14-16(26)10(7-30-20(14)15)8-1-3-9(23)4-2-8/h1-5,7,13,17-19,21-25,27-29H,6H2
Instrument: LTQ-Orbitrap XL hybrid mass spectrometer (Thermo Scientific)
Instrument type: LC-ESI-ITFT
Ms type: MS2
Ion mode: NEGATIVE
Ionization: ESI
Collision energy: 0.3
Column name: Acquity CSHC18
Retention time: 4.834 min
Base peak: 431.0973
Precursor m/z: 431.0973
Precursor type: [M-H]-
Precursor intensity: 16464800
m/z	relative intensity
117.7217	1
124.9513	1
126.3607	1
137.5906	1
149.0773	1
154.0671	1
160.7216	1
167.0012	3
170.0304	1
180.1657	1
188.8185	1
193.6999	2
195.5012	1
232.3868	1
263.5369	1
279.1594	1
282.506	1
283.0606	37
288.563	1
288.8468	1
292.3899	1
295.8877	1
307.8992	2
308.6771	2
310.9802	6
310.9961	4
311.0554	999
311.1131	5
311.1285	5
311.2126	4
311.227	2
312.0587	23
313.4558	4
314.2632	2
323.0553	3
341.0655	22
353.0691	3
375.4001	1
378.6938	1
383.3343	1
389.2392	1
