Mass spectrum: Capsaicin; LC-ESI-QTOF; MS2; CE: 50eV;  [M-H]-
Name: Capsaicin
Class: Capsaicinoid
Formula: C18H27NO3
Exact mass: 305.1991
SMILES: CC(C)C=CCCCCC(=O)NCC1=CC(=C(C=C1)O)OC
InChI: InChI=1S/C18H27NO3/c1-14(2)8-6-4-5-7-9-18(21)19-13-15-10-11-16(20)17(12-15)22-3/h6,8,10-12,14,20H,4-5,7,9,13H2,1-3H3,(H,19,21)
Instrument: TIMS-TOF Pro, Bruker Daltonik; Elute UHPLC System, Bruker Daltonik
Instrument type: LC-ESI-QTOF
Ms type: MS2
Ion mode: NEGATIVE
Ionization: ESI
Collision energy: 50eV
Column name: Acquity CSHC18
Retention time: 9.488 min
Base peak: 304.1855
Precursor m/z: 304.1855
Precursor type: [M-H]-
Precursor intensity: 6247.44
m/z	relative intensity
41.9979	609
42.9949	12
58.0285	440
59.0333	22
61.3772	10
123.6903	14
168.1354	999
168.387	12
168.4893	10
169.1387	127
