Mass spectrum: Neodiosmin; LC-ESI-ITFT; MS2; CE: 45eV;  [M+H]+
Name: Neodiosmin
Class: Flavonoid
Formula: C28H32O15
Exact mass: 608.1741
SMILES: CC1C(C(C(C(O1)OC2C(C(C(OC2OC3=CC(=C4C(=C3)OC(=CC4=O)C5=CC(=C(C=C5)OC)O)O)CO)O)O)O)O)O
InChI: InChI=1S/C28H32O15/c1-10-21(33)23(35)25(37)27(39-10)43-26-24(36)22(34)19(9-29)42-28(26)40-12-6-14(31)20-15(32)8-17(41-18(20)7-12)11-3-4-16(38-2)13(30)5-11/h3-8,10,19,21-31,33-37H,9H2,1-2H3
Instrument: LTQ Orbitrap XL, Thermo Scientfic; Dionex Ultimate 300
Instrument type: LC-ESI-ITFT
Ms type: MS2
Ion mode: POSITIVE
Ionization: ESI
Collision energy: 45eV
Column name: Alltima C18
Retention time: 12.06 min
Base peak: 609.1806
Precursor m/z: 609.1806
Precursor type: [M+H]+
m/z	relative intensity
255.034	1
301.101	999
