Mass spectrum: HYDROXYPHENYLLACTATE; LC-ESI-QTOF; MS2; CE: 40;  [M-H]-
Name: HYDROXYPHENYLLACTATE
Class: NA
Formula: C9H10O4
Exact mass: 182.05791
SMILES: OC(CC1=CC=C(O)C=C1)C(O)=O
InChI: InChI=1S/C9H10O4/c10-7-3-1-6(2-4-7)5-8(11)9(12)13/h1-4,8,10-11H,5H2,(H,12,13)
Instrument: Agilent 6530Â Q-TOF LC/MS
Instrument type: LC-ESI-QTOF
Ms type: MS2
Ion mode: NEGATIVE
Ionization: ESI
Collision energy: 40
Column name: NA
Retention time: 0.200 min
Base peak: 181.04860
Precursor m/z: 181.04860
Precursor type: [M-H]-
Precursor intensity: 176
m/z	relative intensity
41.0064	112
45.0105	150
49.0082	150
61.9923	163
65.0404	194
65.6221	194
73.0051	213
73.9982	232
77.0505	247
93.0515	333
104.0249	335
105.0421	366
106.0407	416
107.0617	441
116.0357	479
117.051	566
132.032	625
133.0321	676
134.0626	769
135.0604	999
