Mass spectrum: Pyrogallol; ESI-TOF; MS2; CE: 0.6458333;  [M+H]+
Name: Pyrogallol
Class: NA
Formula: C6H6O3
Exact mass: 126.03169
SMILES: OC1=CC=CC(O)=C1O
InChI: InChI=1S/C6H6O3/c7-4-2-1-3-5(8)6(4)9/h1-3,7-9H
Instrument: waters xevo g2 TOF
Instrument type: ESI-TOF
Ms type: MS2
Ion mode: POSITIVE
Ionization: ESI
Collision energy: 0.6458333
Column name: Acquity CSHC18
Retention time: 1.018 min
Base peak: 127.03969
Precursor m/z: 127.03969
Precursor type: [M+H]+
m/z	relative intensity
56.966	4
79.0546	44
81.0341	62
89.0392	34
91.0546	131
95.0131	22
101.0394	35
103.0546	64
105.0337	22
107.0496	37
109.0288	111
110.0341	8
117.0334	104
118.0411	13
119.0495	112
120.053	15
123.9608	52
124.9916	23
127.0391	41
129.0339	52
131.0496	72
134.9908	40
145.0288	71
147.0443	999
148.0483	47
150.9943	24
152.9638	55
157.0285	65
158.0327	6
159.0441	40
163.0392	145
163.9785	42
165.0204	68
173.0003	50
174.0286	8
175.0392	491
176.0436	16
177.9554	21
179.0316	30
179.9506	210
180.9572	73
185.0235	18
187.0376	47
191.034	76
192.0077	19
193.0161	23
197.9618	65
198.9677	40
200.9639	31
203.0338	499
204.0391	22
205.0491	35
216.9584	18
219.0012	55
220.0022	11
222.0479	84
231.0285	82
235.0126	2
241.0498	29
242.9993	2
244.9556	21
245.9622	18
246.9959	39
248.0019	24
249.0109	38
250.0168	2
253.0502	17
267.0377	1
269.0447	37
272.9498	21
273.9586	11
274.9886	58
275.9691	42
279.0269	7
281.0493	23
287.009	57
289.032	89
297.0392	46
299.0527	18
303.0029	25
304.0084	40
304.9729	50
307.0332	23
309.0385	14
313.0315	7
324.9795	12
325.9865	22
327.0493	16
343.0152	45
353.9801	12
355.0448	18
368.9682	15
371.038	7
373.0541	24
374.0595	7
398.9794	114
399.9867	19
426.9751	31
427.9809	6
448.9939	7
504.9913	13
521.9867	18
522.9951	23
646.9964	3
