Mass spectrum: VALINE; LC-ESI-QTOF; MS2; CE: 10;  [M-H]-
Name: VALINE
Class: NA
Formula: C5H11NO2
Exact mass: 117.07898
SMILES: CC(C)[C@H](N)C(O)=O
InChI: InChI=1S/C5H11NO2/c1-3(2)4(6)5(7)8/h3-4H,6H2,1-2H3,(H,7,8)/t4-/m0/s1
Instrument: Agilent 6530Â Q-TOF LC/MS
Instrument type: LC-ESI-QTOF
Ms type: MS2
Ion mode: NEGATIVE
Ionization: ESI
Collision energy: 10
Column name: NA
Retention time: 0.200 min
Base peak: 116.07455
Precursor m/z: 116.07455
Precursor type: [M-H]-
Precursor intensity: 148
m/z	relative intensity
116.0914	196
116.9426	999
