Mass spectrum: L-Histidine; LC-ESI-QTOF; MS2; CE: 15;  [M-H]-
Name: L-Histidine
Class: NA
Formula: C6H9N3O2
Exact mass: 155.0695
SMILES: C1=C(NC=N1)CC(C(=O)O)N
InChI: InChI=1S/C6H9N3O2/c7-5(6(10)11)1-4-2-8-3-9-4/h2-3,5H,1,7H2,(H,8,9)(H,10,11)
Instrument: Bruker MicrOTOF-Q
Instrument type: LC-ESI-QTOF
Ms type: MS2
Ion mode: NEGATIVE
Ionization: ESI
Collision energy: 15
Column name: Acquity CSHC18
Retention time: NA
Base peak: 154.0622
Precursor m/z: 154.0622
Precursor type: [M-H]-
m/z	relative intensity
59.8565	160
65.706	221
75.0528	190
80.1117	152
84.3681	266
86.4428	221
86.6171	205
90.6347	320
92.7215	251
93.0448	999
98.5811	160
99.3438	244
102.5652	167
108.0587	510
109.0279	305
110.0738	693
118.043	366
120.9322	228
135.4553	213
137.0353	907
141.7371	343
154.0608	442
185.246	289
191.4983	274
203.7881	259
203.9218	160
213.5703	213
214.9432	213
216.3951	244
260.0967	183
284.1503	213
327.9117	266
352.6585	160
397.5072	244
433.6113	175
483.162	251
564.5486	152
590.9088	183
591.8884	205
627.1893	183
631.3353	175
733.6563	198
735.591	183
736.5669	167
746.9115	228
782.9789	167
808.5974	190
825.0669	183
