Mass spectrum: Cytidine; LC-ESI-ITFT; MS2; CE: 40;  [M+H]+
Name: Cytidine
Class: Nucleosides, nucleotides, and analogues; Pyrimidine nucleosides
Formula: C9H13N3O5
Exact mass: 243.08552
SMILES: NC1=NC(=O)N(C=C1)[C@@H]1O[C@H](CO)[C@@H](O)[C@H]1O
InChI: InChI=1S/C9H13N3O5/c10-5-1-2-12(9(16)11-5)8-7(15)6(14)4(3-13)17-8/h1-2,4,6-8,13-15H,3H2,(H2,10,11,16)/t4-,6-,7-,8-/m1/s1
Instrument: Thermo Scientific Q-Exactive Focus
Instrument type: LC-ESI-ITFT
Ms type: MS2
Ion mode: POSITIVE
Ionization: ESI
Collision energy: 40
Column name: Acquity CSHC18
Retention time: 1.463 min
Base peak: 244.09280
Precursor m/z: 244.09280
Precursor type: [M+H]+
m/z	relative intensity
52.0188	3
55.0184	6
57.034	5
67.0296	15
68.0136	14
69.0452	103
71.0132	3
94.0403	45
95.0243	340
112.0508	999
