Mass spectrum: CAY10509; ESI-TOF; MS2; CE: 0.6458333;  [M+H]+
Name: CAY10509
Class: NA
Formula: C23H35FO5S
Exact mass: 442.21892
SMILES: O[C@@H]1C[C@H](O)[C@H](CCCCCCC(OC)=O)[C@H]1CC[C@@H](O)CSC2=C(F)C=CC=C2
InChI: InChI=1S/C23H35FO5S/c1-29-23(28)11-5-3-2-4-8-17-18(21(27)14-20(17)26)13-12-16(25)15-30-22-10-7-6-9-19(22)24/h6-7,9-10,16-18,20-21,25-27H,2-5,8,11-15H2,1H3/t16-,17-,18-,20+,21-/m1/s1
Instrument: waters xevo g2 TOF
Instrument type: ESI-TOF
Ms type: MS2
Ion mode: POSITIVE
Ionization: ESI
Collision energy: 0.6458333
Column name: Acquity CSHC18
Retention time: 3.937 min
Base peak: 443.22692
Precursor m/z: 443.22692
Precursor type: [M+H]+
m/z	relative intensity
69.0337	11
82.0747	7
91.0551	277
95.0868	129
111.0817	16
120.0912	17
131.0865	456
132.0899	36
134.1037	18
137.0967	97
141.0194	64
145.1028	597
146.105	40
147.118	55
148.1218	10
149.1326	134
153.0191	9
159.1181	91
160.1193	10
163.1137	64
165.0558	10
166.9986	31
171.1168	33
177.1276	27
183.1179	71
184.1192	7
187.1317	99
191.1436	11
193.1234	42
199.0282	7
205.1227	29
211.149	300
212.1513	26
216.0709	10
219.1747	72
220.1792	11
223.0807	12
223.5804	15
232.0857	294
232.5873	44
233.084	15
235.1697	9
240.0587	6
241.0909	49
247.1264	511
248.1741	149
261.1856	579
262.188	98
263.191	8
265.178	20
279.1965	999
280.2001	180
281.152	10
289.1064	11
297.1154	83
298.1162	10
304.3005	13
307.0989	8
321.1356	141
333.1163	40
335.1502	12
339.1654	6
351.1234	69
352.1274	21
357.168	30
375.1851	5
376.1843	15
385.0959	12
389.1936	57
390.1972	14
391.1988	5
403.1071	132
405.1033	43
406.1048	5
407.2067	178
408.2072	40
425.2161	23
426.2211	4
431.1385	22
444.1855	14
444.6933	10
445.1776	6
