Mass spectrum: Niveusin A, 2-methylbutyrate; LC-ESI-ITFT; MS2; CE: 50eV;  [M+H]+
Name: Niveusin A, 2-methylbutyrate
Class: Sesquiterpenelactone; Heliangolide
Formula: C20H28O8
Exact mass: 396.1784
SMILES: CC(CC)C(=O)O[C@@H]3C[C@@]1(C)O[C@@](O)(C[C@@H]1O)C(CO)=C[C@@H]2OC(=O)C(=C)[C@@H]23
InChI: InChI=1S/C20H28O8/c1-5-10(2)17(23)27-14-7-19(4)15(22)8-20(25,28-19)12(9-21)6-13-16(14)11(3)18(24)26-13/h6,10,13-16,21-22,25H,3,5,7-9H2,1-2,4H3/t10?,13-,14+,15-,16-,19+,20-/m0/s1
Instrument: Q Exactive Plus, ThermoFisher Scientific
Instrument type: LC-ESI-ITFT
Ms type: MS2
Ion mode: POSITIVE
Ionization: ESI
Collision energy: 50eV
Column name: Acquity CSHC18
Retention time: 5.614 min
Base peak: 397.1845
Precursor m/z: 397.1845
Precursor type: [M+H]+
Precursor intensity: 74543970
m/z	relative intensity
54.6136	67
55.7701	66
57.0706	312
58.3597	56
60.448	51
62.1823	62
66.8153	65
68.7874	325
85.0659	254
91.397	56
93.7546	59
95.5484	54
97.0651	246
99.0449	67
131.9396	60
147.4248	57
163.0754	126
171.0814	67
185.0973	325
189.0921	107
199.0766	73
203.1062	63
213.0906	796
217.0874	226
229.0846	95
231.1013	577
241.0843	621
252.747	61
259.0952	999
266.6327	58
277.1068	840
295.1154	79
361.1677	103
397.1812	123
