Mass spectrum: oxyresveratrol; LC-ESI-ITFT; MS2; CE: 0.3;  [M-H]-
Name: oxyresveratrol
Class: stilbenoids
Formula: C14H12O4
Exact mass: 244.0736
SMILES: C1=CC(=C(C=C1O)O)C=CC2=CC(=CC(=C2)O)O
InChI: InChI=1S/C14H12O4/c15-11-4-3-10(14(18)8-11)2-1-9-5-12(16)7-13(17)6-9/h1-8,15-18H
Instrument: LTQ-Orbitrap XL hybrid mass spectrometer (Thermo Scientific)
Instrument type: LC-ESI-ITFT
Ms type: MS2
Ion mode: NEGATIVE
Ionization: ESI
Collision energy: 0.3
Column name: Acquity CSHC18
Retention time: 5.733 min
Base peak: 243.0664
Precursor m/z: 243.0664
Precursor type: [M-H]-
Precursor intensity: 20017140
m/z	relative intensity
56.5452	5
58.3305	5
59.1748	4
61.0529	5
62.3903	6
62.5387	4
64.4458	4
67.4048	4
67.6665	5
73.1018	4
73.5768	5
81.0298	5
82.5679	4
90.0671	6
95.1824	5
100.5733	5
108.2235	4
111.8536	5
116.0323	4
118.5556	5
126.5492	5
130.4708	5
135.0095	14
138.0627	5
140.0998	5
142.9765	5
156.8668	5
157.0664	72
158.0378	8
159.0456	213
161.0255	15
164.1936	7
167.099	6
173.0612	61
175.0768	135
181.0664	237
183.0455	36
185.0249	235
189.0276	7
199.0768	339
201.0561	330
207.9671	6
215.0718	132
225.0561	999
227.0356	13
228.0433	149
241.0514	12
243.0665	635
