Mass spectrum: Robustine; APCI-ITFT; MS2; CE: 35 CID;  [M+H]+
Name: Robustine
Class: NA
Formula: C50H83NO19
Exact mass: 1001.55593
SMILES: C[C@@H]1CC[C@@]2([C@@H](C)[C@H]3[C@H](C[C@H]4[C@@H]5CCC6C[C@H](CC[C@]6(C)[C@H]5CC[C@]34C)O[C@H]3[C@@H]([C@H]([C@@H]([C@@H](CO)O3)O[C@H]3[C@@H]([C@@H]([C@H]([C@H](C)O3)O)O)O[C@H]3[C@@H]([C@@H]([C@H]([C@H](C)O3)O)O)O)O)O[C@H]3[C@H]([C@@H]([C@H](CO3)O)O)O)O2)NC1
InChI: InChI=1S/C50H83NO19/c1-20-9-14-50(51-17-20)21(2)32-30(70-50)16-28-26-8-7-24-15-25(10-12-48(24,5)27(26)11-13-49(28,32)6)65-47-43(68-44-38(59)35(56)29(53)19-62-44)40(61)41(31(18-52)66-47)67-46-42(37(58)34(55)23(4)64-46)69-45-39(60)36(57)33(54)22(3)63-45/h20-47,51-61H,7-19H2,1-6H3/t20-,21+,22+,23+,24?,25+,26-,27+,28+,29+,30+,31-,32+,33+,34+,35-,36-,37-,38+,39-,40+,41-,42-,43-,44+,45+,46+,47-,48+,49+,50-/m1/s1
Instrument: Orbitrap Elite
Instrument type: APCI-ITFT
Ms type: MS2
Ion mode: POSITIVE
Ionization: APCI
Collision energy: 35 CID
Column name: Acquity CSHC18
Retention time: 0.066 min
Base peak: 1002.55200
Precursor m/z: 1002.55200
Precursor type: [M+H]+
Precursor intensity: 375918900
m/z	relative intensity
378.3117	35
396.3293	88
561.39	29
709.434	123
837.4825	148
855.4937	999
932.111	19
