Mass spectrum: (22S,25R)-22,26-Imino-5alpha-cholestan-3beta-ol; APCI-ITFT; MS2; CE: 35 CID;  [M+H]+
Name: (22S,25R)-22,26-Imino-5alpha-cholestan-3beta-ol
Class: NA
Formula: C27H47NO
Exact mass: 401.36577
SMILES: C[C@@H](CN1)CC[C@H]1[C@@H](C)[C@H]2CC[C@@]3([H])[C@]4([H])CC[C@@]5([H])C[C@@H](O)CC[C@]5(C)[C@@]4([H])CC[C@]23C
InChI: InChI=1S/C27H47NO/c1-17-5-10-25(28-16-17)18(2)22-8-9-23-21-7-6-19-15-20(29)11-13-26(19,3)24(21)12-14-27(22,23)4/h17-25,28-29H,5-16H2,1-4H3/t17-,18+,19+,20+,21+,22-,23+,24+,25+,26+,27-/m1/s1
Instrument: Orbitrap Elite
Instrument type: APCI-ITFT
Ms type: MS2
Ion mode: POSITIVE
Ionization: APCI
Collision energy: 35 CID
Column name: Acquity CSHC18
Retention time: 0.143 min
Base peak: 402.37190
Precursor m/z: 402.37190
Precursor type: [M+H]+
Precursor intensity: 4628580000
m/z	relative intensity
119.0854	20
121.1011	23
123.1179	15
128.1435	55
129.0699	8
131.0856	32
133.1009	51
135.1173	87
137.1326	12
142.1586	46
143.0845	7
145.1018	52
147.1168	90
149.132	78
151.1106	8
151.1472	8
154.1589	10
157.1006	15
159.117	83
161.1327	102
163.1114	6
163.1477	59
168.1746	12
171.1172	13
173.1325	42
175.149	60
177.1649	27
182.1902	8
185.1327	43
187.1486	73
189.1642	86
191.1803	12
196.2066	28
199.1475	49
201.1651	80
203.1788	46
205.1947	6
213.1637	61
215.1798	76
217.1942	50
222.2214	6
227.1796	46
229.196	49
231.2095	12
236.2368	9
241.1956	37
243.211	70
245.225	9
248.2349	5
250.2551	20
255.21	75
257.2267	133
259.2416	18
262.2536	6
264.2679	14
269.2264	13
271.2436	28
273.2224	39
273.2576	30
274.2531	10
275.2347	9
276.2689	36
278.2826	16
283.2443	20
285.2556	36
288.2679	14
290.2848	26
297.2604	10
299.274	8
302.2855	22
311.2726	17
342.3174	6
367.3369	129
384.3646	999
385.3462	14
402.3242	8
402.3795	29
