Mass spectrum: 5-Hydroxymethyl-2-furancarboxaldehyde; LC-ESI-ITFT; MS2; CE: 20;  [M+H]+
Name: 5-Hydroxymethyl-2-furancarboxaldehyde
Class: Organooxygen compounds; Carbonyl compounds; Aldehydes
Formula: C6H6O3
Exact mass: 126.03169
SMILES: OCC1=CC=C(O1)C=O
InChI: InChI=1S/C6H6O3/c7-3-5-1-2-6(4-8)9-5/h1-3,8H,4H2
Instrument: Thermo Scientific Q-Exactive Focus
Instrument type: LC-ESI-ITFT
Ms type: MS2
Ion mode: POSITIVE
Ionization: ESI
Collision energy: 20
Column name: Acquity CSHC18
Retention time: 0.630 min
Base peak: 127.03897
Precursor m/z: 127.03897
Precursor type: [M+H]+
m/z	relative intensity
51.0236	12
53.0392	680
57.034	14
68.0248	17
69.034	14
71.0496	10
81.0339	999
85.0513	99
109.0286	381
127.0727	38
