Mass spectrum: Orotic acid; LC-ESI-ITFT; MS2; CE: 20;  [M-H]-
Name: Orotic acid
Class: Organoheterocyclic compounds; Diazines; Pyrimidines and pyrimidine derivatives
Formula: C5H4N2O4
Exact mass: 156.01711
SMILES: OC(=O)C1=CC(=O)NC(=O)N1
InChI: InChI=1S/C5H4N2O4/c8-3-1-2(4(9)10)6-5(11)7-3/h1H,(H,9,10)(H2,6,7,8,11)
Instrument: Thermo Scientific Q-Exactive Focus
Instrument type: LC-ESI-ITFT
Ms type: MS2
Ion mode: NEGATIVE
Ionization: ESI
Collision energy: 20
Column name: Acquity CSHC18
Retention time: 0.647 min
Base peak: 155.00983
Precursor m/z: 155.00983
Precursor type: [M-H]-
m/z	relative intensity
67.0289	31
68.0129	19
73.2741	2
76.4747	2
111.0188	999
130.0309	2
153.6385	3
155.0088	3
161.7382	3
162.3225	2
