Mass spectrum: Lyciumoside IV; LC-ESI-QTOF; MS2; CE: 15.5eV;  [M+NH4]+
Name: Lyciumoside IV
Class: Diterpene
Formula: C38H64O16
Exact mass: 776.4194
SMILES: CC1C(C(C(C(O1)OC2C(OC(C(C2O)O)OC(C)(CCC=C(C)CCC=C(C)CCC=C(C)COC3C(C(C(C(O3)CO)O)O)O)C=C)CO)O)O)O
InChI: InChI=1S/C38H64O16/c1-7-38(6,54-37-33(48)30(45)34(25(18-40)52-37)53-36-32(47)28(43)26(41)23(5)50-36)16-10-15-21(3)12-8-11-20(2)13-9-14-22(4)19-49-35-31(46)29(44)27(42)24(17-39)51-35/h7,11,14-15,23-37,39-48H,1,8-10,12-13,16-19H2,2-6H3
Instrument: Impact II qTOF
Instrument type: LC-ESI-QTOF
Ms type: MS2
Ion mode: POSITIVE
Ionization: ESI
Collision energy: 15.5eV
Column name: Acquity CSH C18 column (particle size 1.7 μm, column length 2.1 × 50 mm) (Waters)
Retention time: 20.4 min
Base peak: 794.4535
Precursor m/z: 794.4535
Precursor type: [M+NH4]+
m/z	relative intensity
291.1078	30
309.118	932
310.1222	114
325.1147	29
327.1289	145
381.2799	29
399.2908	97
400.2947	26
417.3005	410
418.3035	110
433.2948	63
435.3104	158
436.3147	48
451.3058	135
452.3095	30
471.1704	140
472.175	37
489.1807	34
579.3546	39
597.364	200
598.3683	68
759.4147	44
777.4277	52
794.4535	999
