Mass spectrum: Kynurenic acid; LC-ESI-ITFT; MS2; CE: 20;  [M+H]+
Name: Kynurenic acid
Class: Organoheterocyclic compounds; Quinolines and derivatives; Quinoline carboxylic acids
Formula: C10H7NO3
Exact mass: 189.04259
SMILES: OC(=O)C1=CC(=O)C2=CC=CC=C2N1
InChI: InChI=1S/C10H7NO3/c12-9-5-8(10(13)14)11-7-4-2-1-3-6(7)9/h1-5H,(H,11,12)(H,13,14)
Instrument: Thermo Scientific Q-Exactive Focus
Instrument type: LC-ESI-ITFT
Ms type: MS2
Ion mode: POSITIVE
Ionization: ESI
Collision energy: 20
Column name: Acquity CSHC18
Retention time: 0.631 min
Base peak: 190.04987
Precursor m/z: 190.04987
Precursor type: [M+H]+
m/z	relative intensity
89.039	12
116.0496	24
162.0495	1
162.055	999
169.0346	3
185.0709	2
190.0498	32
