Mass spectrum: Pyrocatechol; LC-ESI-ITFT; MS2; CE: 60;  [M-H]-
Name: Pyrocatechol
Class: Benzenoids; Phenols; Benzenediols
Formula: C6H6O2
Exact mass: 110.03678
SMILES: OC1=CC=CC=C1O
InChI: InChI=1S/C6H6O2/c7-5-3-1-2-4-6(5)8/h1-4,7-8H
Instrument: Thermo Scientific Q-Exactive Focus
Instrument type: LC-ESI-ITFT
Ms type: MS2
Ion mode: NEGATIVE
Ionization: ESI
Collision energy: 60
Column name: Acquity CSHC18
Retention time: 2.027 min
Base peak: 109.02950
Precursor m/z: 109.02950
Precursor type: [M-H]-
m/z	relative intensity
55.1758	909
59.024	840
62.5206	844
70.7488	838
81.6653	882
95.5354	899
99.5621	999
110.4613	938
115.3338	901
117.6456	848
