Mass spectrum: Trimethyl Sphingosine (d18:1); ESI-TOF; MS2; CE: 6.0000000;  [M+H]+
Name: Trimethyl Sphingosine (d18:1)
Class: NA
Formula: [C21H44NO2]+
Exact mass: 342.33666
SMILES: [H]OC([H])([H])C([H])(C([H])(O[H])C([H])=C([H])C([H])([H])C([H])([H])C([H])([H])C([H])([H])C([H])([H])C([H])([H])C([H])([H])C([H])([H])C([H])([H])C([H])([H])C([H])([H])C([H])([H])C([H])([H])[H])[N+](C([H])([H])[H])(C([H])([H])[H])C([H])([H])[H]
InChI: InChI=1S/C21H44NO2/c1-5-6-7-8-9-10-11-12-13-14-15-16-17-18-21(24)20(19-23)22(2,3)4/h17-18,20-21,23-24H,5-16,19H2,1-4H3/q+1
Instrument: waters xevo g2 TOF
Instrument type: ESI-TOF
Ms type: MS2
Ion mode: POSITIVE
Ionization: ESI
Collision energy: 6.0000000
Column name: Acquity CSHC18
Retention time: 4.264 min
Base peak: 343.34520
Precursor m/z: 343.34520
Precursor type: [M+H]+
m/z	relative intensity
326.3425	1
342.3375	999
343.3406	235
344.3476	36
345.3474	3
683.667	2
684.6702	1
