Mass spectrum: Flavin mononucleotide; LC-ESI-QTOF; MS2; CE: 38.26;  [2M+H]+
Name: Flavin mononucleotide
Class: NA
Formula: C17H21N4O9P
Exact mass: 456.1046
SMILES: CC1=CC2=C(C=C1C)N(C3=NC(=O)NC(=O)C3=N2)CC(C(C(COP(=O)(O)O)O)O)O
InChI: InChI=1S/C17H21N4O9P/c1-7-3-9-10(4-8(7)2)21(15-13(18-9)16(25)20-17(26)19-15)5-11(22)14(24)12(23)6-30-31(27,28)29/h3-4,11-12,14,22-24H,5-6H2,1-2H3,(H,20,25,26)(H2,27,28,29)
Instrument: Bruker MicrOTOF-Q
Instrument type: LC-ESI-QTOF
Ms type: MS2
Ion mode: POSITIVE
Ionization: ESI
Collision energy: 38.26
Column name: Acquity CSHC18
Retention time: NA
Base peak: 913.2165
Precursor m/z: 913.2165
Precursor type: [2M+H]+
m/z	relative intensity
243.09	116
359.13	303
414.11	114
439.1	842
440.1	180
457.11	999
458.12	211
