Mass spectrum: Indoleacetic acid; LC-ESI-ITFT; MS2; CE: 30;  [M+H]+
Name: Indoleacetic acid
Class: Organoheterocyclic compounds; Indoles and derivatives; Indolyl carboxylic acids and derivatives
Formula: C10H9NO2
Exact mass: 175.06333
SMILES: OC(=O)CC1=CNC2=C1C=CC=C2
InChI: InChI=1S/C10H9NO2/c12-10(13)5-7-6-11-9-4-2-1-3-8(7)9/h1-4,6,11H,5H2,(H,12,13)
Instrument: Thermo Scientific Q-Exactive Focus
Instrument type: LC-ESI-ITFT
Ms type: MS2
Ion mode: POSITIVE
Ionization: ESI
Collision energy: 30
Column name: Acquity CSHC18
Retention time: 0.914 min
Base peak: 176.07060
Precursor m/z: 176.07060
Precursor type: [M+H]+
m/z	relative intensity
53.0392	21
95.0495	34
102.0467	6
103.0545	289
104.0498	10
105.045	10
117.0575	16
128.0496	21
130.0653	999
146.0601	8
