Mass spectrum: 5-Methoxytryptophol; LC-ESI-ITFT; MS2; CE: 30;  [M+H]+
Name: 5-Methoxytryptophol
Class: Organoheterocyclic compounds; Indoles and derivatives; Indoles
Formula: C11H13NO2
Exact mass: 191.09463
SMILES: COC1=CC=C2NC=C(CCO)C2=C1
InChI: InChI=1S/C11H13NO2/c1-14-9-2-3-11-10(6-9)8(4-5-13)7-12-11/h2-3,6-7,12-13H,4-5H2,1H3
Instrument: Thermo Scientific Q-Exactive Focus
Instrument type: LC-ESI-ITFT
Ms type: MS2
Ion mode: POSITIVE
Ionization: ESI
Collision energy: 30
Column name: Acquity CSHC18
Retention time: 0.914 min
Base peak: 192.10191
Precursor m/z: 192.10191
Precursor type: [M+H]+
m/z	relative intensity
91.0546	41
115.0544	118
130.0653	542
131.0731	999
143.073	453
146.06	95
158.0601	63
159.0679	616
160.0757	110
174.0914	74
