Mass spectrum: HIPPURATE; LC-ESI-QFT; MS2; CE: 30eV;  [M+H]+
Name: HIPPURATE
Class: NA
Formula: C9H9NO3
Exact mass: 179.05824
SMILES: OC(=O)CNC(=O)C1=CC=CC=C1
InChI: InChI=1S/C9H9NO3/c11-8(12)6-10-9(13)7-4-2-1-3-5-7/h1-5H,6H2,(H,10,13)(H,11,12)
Instrument: Q-Exactive Orbitrap, Thermo Scientfic; Ultimate 3000 HPLC, Thermo Scientfic
Instrument type: LC-ESI-QFT
Ms type: MS2
Ion mode: POSITIVE
Ionization: ESI
Collision energy: 30eV
Column name: Acquity CSHC18
Retention time: 4.584 min
Base peak: 180.0655
Precursor m/z: 180.0655
Precursor type: [M+H]+
Precursor intensity: 151
m/z	relative intensity
50.3186	9
50.5311	8
51.0235	21
57.0706	10
57.639	7
60.4528	8
74.615	8
77.039	152
78.5254	9
95.0497	361
95.9737	12
106.0373	999
111.9686	180
114.8809	10
117.9801	95
129.9791	80
134.0602	99
135.1288	10
139.9635	55
148.9615	11
157.974	60
161.9701	18
162.0552	57
180.0657	217
181.0276	9
181.1225	10
182.4698	10
189.1408	9
