Mass spectrum: PURINE; LC-ESI-QTOF; MS2; CE: 20;  [M-H]-
Name: PURINE
Class: NA
Formula: C5H4N4
Exact mass: 120.04360
SMILES: N1C=NC2=C1C=NC=N2
InChI: InChI=1S/C5H4N4/c1-4-5(8-2-6-1)9-3-7-4/h1-3H,(H,6,7,8,9)
Instrument: Agilent 6530Â Q-TOF LC/MS
Instrument type: LC-ESI-QTOF
Ms type: MS2
Ion mode: NEGATIVE
Ionization: ESI
Collision energy: 20
Column name: NA
Retention time: 0.200 min
Base peak: 119.03438
Precursor m/z: 119.03438
Precursor type: [M-H]-
Precursor intensity: 103
m/z	relative intensity
41.0157	139
64.0092	145
65.0249	213
67.0309	235
90.0108	355
92.0324	577
119.0563	999
