Mass spectrum: DEOXYADENOSINE; LC-ESI-QTOF; MS2; CE: 10;  [M+H]+
Name: DEOXYADENOSINE
Class: NA
Formula: C10H13N5O3
Exact mass: 251.1018
SMILES: NC1=C2N=CN([C@H]3C[C@H](O)[C@@H](CO)O3)C2=NC=N1
InChI: InChI=1S/C10H13N5O3/c11-9-8-10(13-3-12-9)15(4-14-8)7-1-5(17)6(2-16)18-7/h3-7,16-17H,1-2H2,(H2,11,12,13)/t5-,6+,7+/m0/s1
Instrument: Agilent 6530Â Q-TOF LC/MS
Instrument type: LC-ESI-QTOF
Ms type: MS2
Ion mode: POSITIVE
Ionization: ESI
Collision energy: 10
Column name: NA
Retention time: 0.200 min
Base peak: 252.10992
Precursor m/z: 252.10992
Precursor type: [M+H]+
Precursor intensity: 76.5
m/z	relative intensity
59.0507	13
71.0474	20
73.0281	41
99.0448	63
117.0555	77
136.061	999
252.1073	13
