Mass spectrum: HOMOSERINE; LC-ESI-QFT; MS2; CE: 30eV;  [M+H]+
Name: HOMOSERINE
Class: NA
Formula: C4H9NO3
Exact mass: 119.05824
SMILES: N[C@@H](CCO)C(O)=O
InChI: InChI=1S/C4H9NO3/c5-3(1-2-6)4(7)8/h3,6H,1-2,5H2,(H,7,8)/t3-/m0/s1
Instrument: Q-Exactive Orbitrap, Thermo Scientfic; Ultimate 3000 HPLC, Thermo Scientfic
Instrument type: LC-ESI-QFT
Ms type: MS2
Ion mode: POSITIVE
Ionization: ESI
Collision energy: 30eV
Column name: Acquity CSHC18
Retention time: 0.528 min
Base peak: 120.0655
Precursor m/z: 120.0655
Precursor type: [M+H]+
Precursor intensity: 110
m/z	relative intensity
52.2356	1
52.5108	1
55.5668	1
56.0503	218
58.0659	1
60.9871	1
73.9824	1
74.0244	27
74.0607	999
75.0578	1
75.0641	14
84.045	13
85.0289	2
89.1846	1
91.0549	8
93.0705	1
97.0082	16
97.011	1
102.0555	62
114.311	1
118.9678	3
119.09	35
119.9759	1
120.024	25
120.0567	4
120.0659	136
120.0908	6
121.0286	3
121.065	1
124.8129	1
