Mass spectrum: 6-Phosphogluconic acid; LC-ESI-ITFT; MS2; CE: 20;  [M-H]-
Name: 6-Phosphogluconic acid
Class: Organic oxygen compounds; Organooxygen compounds; Carbohydrates and carbohydrate conjugates
Formula: C6H13O10P
Exact mass: 276.02463
SMILES: O[C@H](COP(O)(O)=O)[C@@H](O)[C@H](O)[C@@H](O)C(O)=O
InChI: InChI=1S/C6H13O10P/c7-2(1-16-17(13,14)15)3(8)4(9)5(10)6(11)12/h2-5,7-10H,1H2,(H,11,12)(H2,13,14,15)/t2-,3-,4+,5-/m1/s1
Instrument: Thermo Scientific Q-Exactive Focus
Instrument type: LC-ESI-ITFT
Ms type: MS2
Ion mode: NEGATIVE
Ionization: ESI
Collision energy: 20
Column name: Acquity CSHC18
Retention time: 0.648 min
Base peak: 275.01736
Precursor m/z: 275.01736
Precursor type: [M-H]-
m/z	relative intensity
71.0126	41
78.9578	587
96.9684	999
129.0182	109
130.9825	214
132.9801	196
139.0002	55
158.9776	112
160.9752	98
177.0396	91
