Mass spectrum: Quercitrin-7-O-α-L-rhamnopyranoside; LC-ESI-ITFT; MS2; CE: 0.3;  [M-H]-
Name: Quercitrin-7-O-α-L-rhamnopyranoside
Class: flavonol glycosides
Formula: C27H30O15
Exact mass: 594.1585
SMILES: O([C@H]1[C@@H](O)[C@@H](O)[C@H](O)[C@@H](C)O1)c1cc(O)c2C(=O)C(O[C@H]3[C@H](O)[C@H](O)[C@@H](O)[C@H](C)O3)=C(c3cc(O)c(O)cc3)Oc2c1
InChI: InChI=1S/C27H30O15/c1-8-17(31)20(34)22(36)26(38-8)40-11-6-14(30)16-15(7-11)41-24(10-3-4-12(28)13(29)5-10)25(19(16)33)42-27-23(37)21(35)18(32)9(2)39-27/h3-9,17-18,20-23,26-32,34-37H,1-2H3/t8-,9+,17-,18+,20+,21-,22+,23-,26+,27+/m1/s1
Instrument: LTQ-Orbitrap XL hybrid mass spectrometer (Thermo Scientific)
Instrument type: LC-ESI-ITFT
Ms type: MS2
Ion mode: NEGATIVE
Ionization: ESI
Collision energy: 0.3
Column name: Acquity CSHC18
Retention time: 4.932 min
Base peak: 593.1511
Precursor m/z: 593.1511
Precursor type: [M-H]-
Precursor intensity: 12546570
m/z	relative intensity
167.0872	7
179.1898	1
194.2567	1
197.6807	2
198.0274	1
202.198	1
230.9511	1
244.9405	1
287.0857	4
296.8182	1
297.9968	1
298.7772	3
299.0182	4
300.0272	3
301.0351	220
303.3196	2
324.1983	4
325.0531	1
327.5574	1
343.0458	4
360.9801	1
373.0585	2
390.021	1
426.1842	1
429.784	1
431.0875	1
435.0108	2
438.9796	4
439.9061	1
440.3256	3
440.6237	1
441.6532	3
441.9168	1
442.0123	3
442.5706	1
443.0069	12
443.7999	1
443.8364	2
444.3644	5
444.9052	2
445.1935	2
445.7202	6
446.0857	227
446.7622	3
446.7901	3
446.8173	3
446.8475	4
446.8765	5
446.9037	5
446.932	5
446.962	6
446.9887	5
447.0929	999
447.1909	4
447.2184	6
447.2467	5
447.2732	4
447.3041	4
447.3346	4
447.4493	4
447.6487	4
447.9105	2
447.9555	1
448.0943	2
448.1345	2
448.1879	1
448.2637	1
448.3054	2
448.4732	5
448.8517	1
449.0196	2
449.2946	5
449.8515	7
450.2093	2
450.6676	1
451.234	13
451.5975	2
452.1581	1
452.622	3
453.4661	2
454.0265	3
455.4293	4
456.302	1
456.8491	1
457.704	2
459.6873	2
459.9784	1
460.073	1
461.9871	2
464.0041	2
466.3307	1
468.3553	1
473.3931	1
477.9072	1
478.3466	1
478.4664	1
489.1042	3
495.7345	1
498.753	1
528.9103	1
