Mass spectrum: L-Citrulline; LC-ESI-QTOF; MS2; CE: 15;  [M-H]-
Name: L-Citrulline
Class: NA
Formula: C6H13N3O3
Exact mass: 175.0957
SMILES: C(CC(C(=O)O)N)CNC(=O)N
InChI: InChI=1S/C6H13N3O3/c7-4(5(10)11)2-1-3-9-6(8)12/h4H,1-3,7H2,(H,10,11)(H3,8,9,12)
Instrument: Bruker MicrOTOF-Q
Instrument type: LC-ESI-QTOF
Ms type: MS2
Ion mode: NEGATIVE
Ionization: ESI
Collision energy: 15
Column name: Acquity CSHC18
Retention time: NA
Base peak: 174.0884
Precursor m/z: 174.0884
Precursor type: [M-H]-
m/z	relative intensity
45.1728	44
46.5238	37
49.8094	64
51.4947	84
51.9712	55
54.4392	59
56.3464	55
57.0509	44
57.7625	91
60.3302	33
63.6093	52
67.6956	47
70.2397	49
71.0745	82
71.5961	55
75.466	60
77.9348	45
78.8772	60
87.9246	40
89.388	111
90.5973	35
92.4412	60
94.1751	42
94.9536	52
97.0766	67
97.6433	60
98.0684	62
98.9095	64
102.0154	73
104.9157	57
105.999	62
107.4298	67
114.0543	140
115.7342	71
117.9118	49
118.9356	69
120.6912	82
121.7438	45
122.4254	72
123.6369	45
126.964	42
128.7549	52
130.9918	999
132.0792	235
134.87	54
151.0746	49
153.9539	52
154.6061	49
157.4829	38
170.0985	45
191.5807	49
217.7698	40
230.1967	55
235.7042	49
250.0966	37
252.2787	37
260.6142	33
292.5977	38
306.3468	38
336.0494	53
347.0036	47
445.4956	38
459.738	49
479.1924	42
505.6429	49
506.1557	57
535.5619	37
564.9546	67
616.7735	35
632.5177	37
770.5962	50
812.8129	72
814.8335	33
839.2938	38
842.9029	52
844.1133	35
919.8949	35
