Mass spectrum: URACIL 5-CARBOXYLATE; LC-ESI-QTOF; MS2; CE: 40;  [M-H]-
Name: URACIL 5-CARBOXYLATE
Class: NA
Formula: C5H4N2O4
Exact mass: 156.01711
SMILES: C1=C(C(=O)NC(=O)N1)C(=O)O
InChI: InChI=1S/C5H4N2O4/c8-3-2(4(9)10)1-6-5(11)7-3/h1H,(H,9,10)(H2,6,7,8,11)
Instrument: Agilent 6530Â Q-TOF LC/MS
Instrument type: LC-ESI-QTOF
Ms type: MS2
Ion mode: NEGATIVE
Ionization: ESI
Collision energy: 40
Column name: NA
Retention time: 0.200 min
Base peak: 155.01308
Precursor m/z: 155.01308
Precursor type: [M-H]-
Precursor intensity: 175
m/z	relative intensity
41.0046	100
42.0113	159
65.997	195
68.0155	999
