Mass spectrum: 3-Aminoisobutanoic acid; ESI-TOF; MS2; CE: 0.6458333;  [M+H]+
Name: 3-Aminoisobutanoic acid
Class: NA
Formula: C4H9NO2
Exact mass: 103.06333
SMILES: CC(CN)C(O)=O
InChI: InChI=1S/C4H9NO2/c1-3(2-5)4(6)7/h3H,2,5H2,1H3,(H,6,7)
Instrument: waters xevo g2 TOF
Instrument type: ESI-TOF
Ms type: MS2
Ion mode: POSITIVE
Ionization: ESI
Collision energy: 0.6458333
Column name: Acquity CSHC18
Retention time: 0.485 min
Base peak: 104.07133
Precursor m/z: 104.07133
Precursor type: [M+H]+
m/z	relative intensity
56.9428	105
72.9385	196
86.0614	7
92.9674	7
96.9617	7
98.9636	999
104.0713	7
115.9657	7
126.0538	40
129.8804	109
139.9643	42
145.0178	255
149.9611	7
151.9231	126
151.9234	272
160.9529	7
162.9919	7
170.8644	51
172.8619	612
183.9841	7
202.8721	59
205.9887	7
213.8879	69
231.0191	431
245.0818	7
258.1708	39
258.8866	7
278.0549	7
356.1379	28
363.1088	7
364.1081	7
385.09	7
418.0384	49
559.0712	7
