Mass spectrum: L-Cystine; LC-ESI-QTOF; MS2; CE: 15.00;  [2M-2H+H]+
Name: L-Cystine
Class: NA
Formula: C3H7NO2S
Exact mass: 121.0197
SMILES: C(C(C(=O)O)N)S
InChI: InChI=1S/C3H7NO2S/c4-2(1-7)3(5)6/h2,7H,1,4H2,(H,5,6)
Instrument: Bruker MicrOTOF-Q
Instrument type: LC-ESI-QTOF
Ms type: MS2
Ion mode: POSITIVE
Ionization: ESI
Collision energy: 15.00
Column name: Acquity CSHC18
Retention time: NA
Base peak: 241.0311
Precursor m/z: 241.0311
Precursor type: [2M-2H+H]+
m/z	relative intensity
120.0127	396
122.0272	161
123.0299	10
136.9721	30
151.9823	999
152.9862	71
177.9955	92
195.0283	110
224.0024	43
241.0281	118
