Mass spectrum: L-Tyrosine; LC-ESI-ITFT; MS2; CE: 100;  [M+H]+
Name: L-Tyrosine
Class: Organic acids and derivatives; Carboxylic acids and derivatives; Amino acids, peptides, and analogues
Formula: C9H11NO3
Exact mass: 181.07389
SMILES: N[C@@H](CC1=CC=C(O)C=C1)C(O)=O
InChI: InChI=1S/C9H11NO3/c10-8(9(12)13)5-6-1-3-7(11)4-2-6/h1-4,8,11H,5,10H2,(H,12,13)/t8-/m0/s1
Instrument: Thermo Scientific Q-Exactive Focus
Instrument type: LC-ESI-ITFT
Ms type: MS2
Ion mode: POSITIVE
Ionization: ESI
Collision energy: 100
Column name: Acquity CSHC18
Retention time: 2.570 min
Base peak: 182.08118
Precursor m/z: 182.08118
Precursor type: [M+H]+
m/z	relative intensity
50.0157	868
51.0235	999
53.0028	621
57.9353	174
58.9539	126
62.0156	204
63.0234	160
63.9428	124
65.0391	217
74.0155	83
