Mass spectrum: C18:1 Dihydroceramide (d18:0/18:1(9Z)); ESI-TOF; MS2; CE: 6.0000000;  [M+H]+
Name: C18:1 Dihydroceramide (d18:0/18:1(9Z))
Class: NA
Formula: C36H71NO3
Exact mass: 565.54340
SMILES: [H]OC([H])([H])C([H])(N([H])C(=O)C([H])([H])C([H])([H])C([H])([H])C([H])([H])C([H])([H])C([H])([H])C([H])([H])C([H])=C([H])C([H])([H])C([H])([H])C([H])([H])C([H])([H])C([H])([H])C([H])([H])C([H])([H])C([H])([H])[H])C([H])(O[H])C([H])([H])C([H])([H])C([H])([H])C([H])([H])C([H])([H])C([H])([H])C([H])([H])C([H])([H])C([H])([H])C([H])([H])C([H])([H])C([H])([H])C([H])([H])C([H])([H])C([H])([H])[H]
InChI: InChI=1S/C36H71NO3/c1-3-5-7-9-11-13-15-17-18-20-22-24-26-28-30-32-36(40)37-34(33-38)35(39)31-29-27-25-23-21-19-16-14-12-10-8-6-4-2/h17-18,34-35,38-39H,3-16,19-33H2,1-2H3,(H,37,40)
Instrument: waters xevo g2 TOF
Instrument type: ESI-TOF
Ms type: MS2
Ion mode: POSITIVE
Ionization: ESI
Collision energy: 6.0000000
Column name: Acquity CSHC18
Retention time: 11.115 min
Base peak: 566.55140
Precursor m/z: 566.55140
Precursor type: [M+H]+
m/z	relative intensity
302.7534	78
303.2555	61
303.7563	9
310.7399	5
347.2264	9
540.5373	13
541.5337	4
542.373	37
546.5324	4
546.9469	1
548.5404	21
549.5438	5
566.5513	999
567.5548	391
