Mass spectrum: Feruloyltyramine; LC-ESI-QTOF; MS2; CE: 20-40eV;  [M+H]+
Name: Feruloyltyramine
Class: Hydroxycinnamic acids and derivatives
Formula: C18H19NO4
Exact mass: 313.1314
SMILES: COC=1C=C(C=CC1O)C(=C(C(=NCCC2=CC=C(C=C2)O)O)[H])[H]
InChI: InChI=1S/C18H19NO4/c1-23-17-12-14(4-8-16(17)21)5-9-18(22)19-11-10-13-2-6-15(20)7-3-13/h2-9,12,20-21H,10-11H2,1H3,(H,19,22)
Instrument: Impact II, Bruker; Dionex 3000, Thermo Scientific
Instrument type: LC-ESI-QTOF
Ms type: MS2
Ion mode: POSITIVE
Ionization: ESI
Collision energy: 20-40eV
Column name: Acquity CSHC18
Retention time: 6.333 min
Base peak: 314.1390
Precursor m/z: 314.1390
Precursor type: [M+H]+
Precursor intensity: 4601.5
m/z	relative intensity
95.0474	38
103.053	223
115.04	51
117.0327	303
119.0873	37
121.0646	465
122.0621	39
128.0658	37
133.0868	53
133.1008	44
134.0353	48
135.0794	38
144.0631	41
145.0277	299
149.0603	67
171.1198	40
177.0549	999
178.0569	135
188.1228	37
207.0841	40
211.1093	37
268.1565	37
287.097	37
312.1968	56
314.1394	347
