Mass spectrum: Histidine; LC-ESI-QTOF; MS2; CE: 30;  [M-H]-
Name: Histidine
Class: NA
Formula: C6H9N3O2
Exact mass: 155.0695
SMILES: C1=C(NC=N1)CC(C(=O)O)N
InChI: InChI=1S/C6H9N3O2/c7-5(6(10)11)1-4-2-8-3-9-4/h2-3,5H,1,7H2,(H,8,9)(H,10,11)
Instrument: impact II
Instrument type: LC-ESI-QTOF
Ms type: MS2
Ion mode: NEGATIVE
Ionization: ESI
Collision energy: 30
Column name: Acquity CSHC18
Retention time: 1.875 min
Base peak: 154.0623
Precursor m/z: 154.0623
Precursor type: [M-H]-
m/z	relative intensity
80.0378	239
81.0456	194
93.0457	999
