Mass spectrum: L-2-Hydroxyglutaric acid; LC-ESI-ITFT; MS2; CE: 40;  [M-H]-
Name: L-2-Hydroxyglutaric acid
Class: Lipids and lipid-like molecules; Fatty Acyls; Fatty acids and conjugates
Formula: C5H8O5
Exact mass: 148.03717
SMILES: O[C@@H](CCC(O)=O)C(O)=O
InChI: InChI=1S/C5H8O5/c6-3(5(9)10)1-2-4(7)8/h3,6H,1-2H2,(H,7,8)(H,9,10)/t3-/m0/s1
Instrument: Thermo Scientific Q-Exactive Focus
Instrument type: LC-ESI-ITFT
Ms type: MS2
Ion mode: NEGATIVE
Ionization: ESI
Collision energy: 40
Column name: Acquity CSHC18
Retention time: 1.476 min
Base peak: 147.02991
Precursor m/z: 147.02991
Precursor type: [M-H]-
m/z	relative intensity
55.0177	158
57.0334	999
61.9872	660
90.2178	95
93.4869	98
96.2557	96
98.5532	95
106.0322	97
106.8512	102
116.2822	100
