Mass spectrum: 1-octadecylglycero-3-phosphocholine; LC-ESI-ITFT; MS2; CE: 30;  [M+H]+
Name: 1-octadecylglycero-3-phosphocholine
Class: Lipids and lipid-like molecules; Glycerophospholipids; Glycerophosphocholines
Formula: C26H56NO6P
Exact mass: 509.38453
SMILES: CCCCCCCCCCCCCCCCCCOCC(O)COP([O-])(=O)OCC[N+](C)(C)C
InChI: InChI=1S/C26H56NO6P/c1-5-6-7-8-9-10-11-12-13-14-15-16-17-18-19-20-22-31-24-26(28)25-33-34(29,30)32-23-21-27(2,3)4/h26,28H,5-25H2,1-4H3
Instrument: Thermo Scientific Q-Exactive Focus
Instrument type: LC-ESI-ITFT
Ms type: MS2
Ion mode: POSITIVE
Ionization: ESI
Collision energy: 30
Column name: Acquity CSHC18
Retention time: 0.917 min
Base peak: 510.39182
Precursor m/z: 510.39182
Precursor type: [M+H]+
m/z	relative intensity
57.0704	8
60.0812	24
71.0859	9
75.0444	12
85.1015	5
86.0967	80
104.1072	999
124.9998	46
184.0732	176
510.3908	62
