Mass spectrum: (20R,22S,25S)-22,26-Epimino-5alpha-cholestan-3beta,16alpha-20-triol; APCI-ITFT; MS2; CE: CID 35;  [M-H]-
Name: (20R,22S,25S)-22,26-Epimino-5alpha-cholestan-3beta,16alpha-20-triol
Class: NA
Formula: C27H47NO3
Exact mass: 433.35559
SMILES: C[C@H](CN1)CC[C@H]1[C@](C)(O)[C@H]2[C@H](O)C[C@@]3([H])[C@]4([H])CC[C@@]5([H])C[C@@H](O)CC[C@]5(C)[C@@]4([H])CC[C@]23C
InChI: InChI=1S/C27H47NO3/c1-16-5-8-23(28-15-16)27(4,31)24-22(30)14-21-19-7-6-17-13-18(29)9-11-25(17,2)20(19)10-12-26(21,24)3/h16-24,28-31H,5-15H2,1-4H3/t16-,17-,18-,19+,20-,21-,22+,23-,24-,25-,26-,27-/m0/s1
Instrument: Orbitrap Elite
Instrument type: APCI-ITFT
Ms type: MS2
Ion mode: NEGATIVE
Ionization: APCI
Collision energy: CID 35
Column name: Acquity CSHC18
Retention time: 0.131 min
Base peak: 432.34730
Precursor m/z: 432.34730
Precursor type: [M-H]-
Precursor intensity: 78327.59
m/z	relative intensity
117.2056	84
119.0741	74
119.6979	80
122.1585	76
122.1678	86
134.0744	78
140.1083	636
151.8101	86
179.1479	90
215.2573	84
273.2189	329
289.2154	152
295.0891	92
318.8841	97
333.2399	605
377.6667	94
388.2571	90
415.1776	107
415.3224	154
416.3173	999
429.0646	84
