Mass spectrum: N-ACETYLLEUCINE; LC-ESI-QTOF; MS2; CE: 40;  [M+H]+
Name: N-ACETYLLEUCINE
Class: NA
Formula: C8H15NO3
Exact mass: 173.10519
SMILES: CC(C)C[C@H](NC(C)=O)C(O)=O
InChI: InChI=1S/C8H15NO3/c1-5(2)4-7(8(11)12)9-6(3)10/h5,7H,4H2,1-3H3,(H,9,10)(H,11,12)/t7-/m0/s1
Instrument: Agilent 6530Â Q-TOF LC/MS
Instrument type: LC-ESI-QTOF
Ms type: MS2
Ion mode: POSITIVE
Ionization: ESI
Collision energy: 40
Column name: NA
Retention time: 0.200 min
Base peak: 174.11069
Precursor m/z: 174.11069
Precursor type: [M+H]+
Precursor intensity: 105.5
m/z	relative intensity
41.0594	30
42.0328	32
43.0662	32
43.2245	35
44.0727	40
45.0482	47
55.0266	140
57.0669	603
69.0689	996
86.1084	999
