Mass spectrum: mulberrin; LC-ESI-ITFT; MS2; CE: 0.3;  [M+H]+
Name: mulberrin
Class: flavones
Formula: C25H26O6
Exact mass: 422.1729
SMILES: CC(=CCC1=C2C(=C(C=C1O)O)C(=O)C(=C(O2)C3=C(C=C(C=C3)O)O)CC=C(C)C)C
InChI: InChI=1S/C25H26O6/c1-13(2)5-8-17-20(28)12-21(29)22-23(30)18(9-6-14(3)4)24(31-25(17)22)16-10-7-15(26)11-19(16)27/h5-7,10-12,26-29H,8-9H2,1-4H3
Instrument: LTQ-Orbitrap XL hybrid mass spectrometer (Thermo Scientific)
Instrument type: LC-ESI-ITFT
Ms type: MS2
Ion mode: POSITIVE
Ionization: ESI
Collision energy: 0.3
Column name: Acquity CSHC18
Retention time: 12.888 min
Base peak: 423.1777
Precursor m/z: 423.1777
Precursor type: [M+H]+
Precursor intensity: 41502060
m/z	relative intensity
110.2311	3
139.3659	3
145.6089	3
166.952	3
202.9876	3
205.1141	3
213.1197	3
245.0869	3
300.7132	3
310.9618	5
310.9757	4
311.0538	999
349.1095	7
367.1162	202
