Mass spectrum: Triamterene; ESI-TOF; MS2; CE: 6.0000000;  [M+H]+
Name: Triamterene
Class: NA
Formula: C12H11N7
Exact mass: 253.10759
SMILES: NC1=NC(N)=C2N=C(C3=CC=CC=C3)C(N)=NC2=N1
InChI: InChI=1S/C12H11N7/c13-9-7(6-4-2-1-3-5-6)16-8-10(14)18-12(15)19-11(8)17-9/h1-5H,(H6,13,14,15,17,18,19)
Instrument: waters xevo g2 TOF
Instrument type: ESI-TOF
Ms type: MS2
Ion mode: POSITIVE
Ionization: ESI
Collision energy: 6.0000000
Column name: Acquity CSHC18
Retention time: 1.877 min
Base peak: 254.11559
Precursor m/z: 254.11559
Precursor type: [M+H]+
m/z	relative intensity
96.9618	4
114.0285	3
127.98	6
130.1593	1
137.9883	7
172.9779	3
180.0821	1
217.1055	2
237.09	4
253.2574	1
254.8824	999
