Mass spectrum: Prostaglandin E2 p-acetamidophenyl ester; ESI-TOF; MS2; CE: 6.0000000;  [M+H]+
Name: Prostaglandin E2 p-acetamidophenyl ester
Class: NA
Formula: C28H39NO6
Exact mass: 485.27774
SMILES: O=C1[C@H](C/C=C\CCCC(OC2=CC=C(NC(C)=O)C=C2)=O)[C@@H](/C=C/[C@@H](O)CCCCC)[C@H](O)C1
InChI: InChI=1S/C28H39NO6/c1-3-4-7-10-22(31)15-18-25-24(26(32)19-27(25)33)11-8-5-6-9-12-28(34)35-23-16-13-21(14-17-23)29-20(2)30/h5,8,13-18,22,24-25,27,31,33H,3-4,6-7,9-12,19H2,1-2H3,(H,29,30)/b8-5-,18-15+/t22-,24+,25+,27+/m0/s1
Instrument: waters xevo g2 TOF
Instrument type: ESI-TOF
Ms type: MS2
Ion mode: POSITIVE
Ionization: ESI
Collision energy: 6.0000000
Column name: Acquity CSHC18
Retention time: 3.918 min
Base peak: 486.28574
Precursor m/z: 486.28574
Precursor type: [M+H]+
m/z	relative intensity
152.0718	125
189.0921	3
207.1045	10
215.1433	9
217.6048	4
233.1533	6
244.6094	45
245.111	8
247.2049	3
253.6152	45
254.1165	16
263.1809	1
271.2045	5
281.1896	18
282.1914	4
299.2009	214
300.203	33
317.2117	231
318.2152	32
319.2182	5
331.2274	5
332.2269	1
349.2379	9
396.2522	16
397.2566	3
398.2686	51
399.273	9
408.2528	16
424.252	11
432.2509	5
450.2651	477
451.2676	128
452.2718	20
468.2752	999
469.2794	342
470.283	58
482.292	5
483.2912	2
