Mass spectrum: 15(R)-15-methyl Prostaglandin F2-alpha; ESI-TOF; MS2; CE: 0.6458333;  [M+H]+
Name: 15(R)-15-methyl Prostaglandin F2-alpha
Class: NA
Formula: C21H36O5
Exact mass: 368.25627
SMILES: CCCCCC(C)(C=CC1C(CC(C1CC=CCCCC(=O)O)O)O)O
InChI: InChI=1S/C21H36O5/c1-3-4-9-13-21(2,26)14-12-17-16(18(22)15-19(17)23)10-7-5-6-8-11-20(24)25/h5,7,12,14,16-19,22-23,26H,3-4,6,8-11,13,15H2,1-2H3,(H,24,25)
Instrument: waters xevo g2 TOF
Instrument type: ESI-TOF
Ms type: MS2
Ion mode: POSITIVE
Ionization: ESI
Collision energy: 0.6458333
Column name: Acquity CSHC18
Retention time: 3.733 min
Base peak: 369.26427
Precursor m/z: 369.26427
Precursor type: [M+H]+
m/z	relative intensity
67.0541	44
69.0706	62
81.0704	198
91.0553	110
93.0712	234
95.0866	184
97.1046	33
105.0711	294
107.087	229
109.1024	67
115.0424	27
117.0718	242
119.0868	139
120.0935	24
121.1019	138
128.0644	67
129.0712	265
131.086	519
133.1026	114
135.119	77
142.0778	38
143.0866	295
145.1018	389
146.1055	47
147.1178	127
149.0961	68
155.0857	129
157.1024	356
158.1061	43
159.1183	170
161.1345	100
167.0857	46
169.1022	73
171.1168	251
173.1343	91
175.1293	143
181.1028	107
182.003	68
183.1182	128
185.098	172
187.1131	83
189.1638	46
191.1041	19
193.1206	3
197.1322	93
199.1115	198
201.1643	67
203.1078	95
204.1096	3
205.1229	46
213.1291	59
215.1799	28
217.1601	46
218.1276	11
219.1386	20
221.1194	14
222.1281	11
223.1467	58
227.1441	46
231.1375	26
233.1483	18
235.133	3
237.1576	33
239.1275	3
241.1595	66
243.2078	3
253.1956	55
255.211	109
259.1693	20
261.2243	3
271.2066	33
272.2079	3
273.2148	18
277.2171	3
278.2208	3
279.2305	121
280.2349	3
287.2387	3
289.2178	68
290.2197	3
291.2308	3
297.2222	241
298.2247	3
307.2265	3
315.2325	735
316.235	148
317.2484	33
318.2514	3
327.1645	67
331.2256	3
332.1438	215
333.1957	77
334.2469	3
335.2508	3
339.2515	20
345.1745	999
351.2532	24
352.2584	3
353.2212	43
355.2246	245
360.1415	200
361.1479	232
369.1516	21
