Mass spectrum: 3,4-Dihydroxycinnamic acid; LC-ESI-QTOF; MS2; CE: 15.00;  [M-H2O+H]+
Name: 3,4-Dihydroxycinnamic acid
Class: NA
Formula: C9H8O4
Exact mass: 180.0423
SMILES: C1=CC(=C(C=C1C=CC(=O)O)O)O
InChI: InChI=1S/C9H8O4/c10-7-3-1-6(5-8(7)11)2-4-9(12)13/h1-5,10-11H,(H,12,13)
Instrument: Bruker MicrOTOF-Q
Instrument type: LC-ESI-QTOF
Ms type: MS2
Ion mode: POSITIVE
Ionization: ESI
Collision energy: 15.00
Column name: Acquity CSHC18
Retention time: NA
Base peak: 163.0390
Precursor m/z: 163.0390
Precursor type: [M-H2O+H]+
m/z	relative intensity
89.0335	48
107.0406	164
116.553	35
117.0303	999
118.0291	87
135.0399	953
135.1767	37
136.1142	45
142.1546	32
145.0262	322
163.0404	191
534.9059	40
