Mass spectrum: Coniferylalcohol; LC-ESI-QTOF; MS2; CE: 15;  [M-H]-
Name: Coniferylalcohol
Class: NA
Formula: C10H12O3
Exact mass: 180.0786
SMILES: COC1=C(C=CC(=C1)C=CCO)O
InChI: InChI=1S/C10H12O3/c1-13-10-7-8(3-2-6-11)4-5-9(10)12/h2-5,7,11-12H,6H2,1H3
Instrument: Bruker MicrOTOF-Q
Instrument type: LC-ESI-QTOF
Ms type: MS2
Ion mode: NEGATIVE
Ionization: ESI
Collision energy: 15
Column name: Acquity CSHC18
Retention time: NA
Base peak: 179.0714
Precursor m/z: 179.0714
Precursor type: [M-H]-
m/z	relative intensity
103.0557	27
105.0301	42
108.0656	51
117.0335	46
118.0428	80
119.0519	76
121.0307	134
130.0382	32
131.0466	27
132.0534	25
133.0645	45
135.0448	650
135.8446	40
144.9847	802
146.2779	711
148.0471	128
161.0581	174
162.0591	30
163.5426	999
165.05	325
179.0738	28
