Mass spectrum: N-ACETYLGLUTAMATE; LC-ESI-QTOF; MS2; CE: 20;  [M-H]-
Name: N-ACETYLGLUTAMATE
Class: NA
Formula: C7H11NO5
Exact mass: 189.06372
SMILES: CC(=O)NC(CCC(O)=O)C(O)=O
InChI: InChI=1S/C7H11NO5/c1-4(9)8-5(7(12)13)2-3-6(10)11/h5H,2-3H2,1H3,(H,8,9)(H,10,11)(H,12,13)
Instrument: Agilent 6530Â Q-TOF LC/MS
Instrument type: LC-ESI-QTOF
Ms type: MS2
Ion mode: NEGATIVE
Ionization: ESI
Collision energy: 20
Column name: NA
Retention time: 0.200 min
Base peak: 188.05455
Precursor m/z: 188.05455
Precursor type: [M-H]-
Precursor intensity: 131
m/z	relative intensity
41.0052	118
42.0027	119
54.0396	125
58.0377	127
59.0248	198
74.0216	236
84.0442	335
100.0816	343
102.0735	374
128.0451	532
144.0613	630
146.04	999
