Mass spectrum: 5-Thymidylic acid; LC-ESI-ITFT; MS2; CE: 30;  [M-H]-
Name: 5-Thymidylic acid
Class: Nucleosides, nucleotides, and analogues; Pyrimidine nucleotides; Pyrimidine deoxyribonucleotides
Formula: C10H15N2O8P
Exact mass: 322.05660
SMILES: CC1=CN([C@H]2C[C@H](O)[C@@H](COP(O)(O)=O)O2)C(=O)NC1=O
InChI: InChI=1S/C10H15N2O8P/c1-5-3-12(10(15)11-9(5)14)8-2-6(13)7(20-8)4-19-21(16,17)18/h3,6-8,13H,2,4H2,1H3,(H,11,14,15)(H2,16,17,18)/t6-,7+,8+/m0/s1
Instrument: Thermo Scientific Q-Exactive Focus
Instrument type: LC-ESI-ITFT
Ms type: MS2
Ion mode: NEGATIVE
Ionization: ESI
Collision energy: 30
Column name: Acquity CSHC18
Retention time: 0.929 min
Base peak: 321.04932
Precursor m/z: 321.04932
Precursor type: [M-H]-
m/z	relative intensity
78.9579	999
96.9685	264
102.9477	2
118.9652	1
125.0346	392
146.9602	13
150.9792	13
174.9554	1
176.995	60
195.0057	98
