Mass spectrum: 4-PYRIDOXATE; LC-ESI-QTOF; MS2; CE: 10;  [M+H]+
Name: 4-PYRIDOXATE
Class: NA
Formula: C8H9NO4
Exact mass: 183.0532
SMILES: CC1=NC=C(CO)C(C(O)=O)=C1O
InChI: InChI=1S/C8H9NO4/c1-4-7(11)6(8(12)13)5(3-10)2-9-4/h2,10-11H,3H2,1H3,(H,12,13)
Instrument: Agilent 6530Â Q-TOF LC/MS
Instrument type: LC-ESI-QTOF
Ms type: MS2
Ion mode: POSITIVE
Ionization: ESI
Collision energy: 10
Column name: NA
Retention time: 0.200 min
Base peak: 184.06104
Precursor m/z: 184.06104
Precursor type: [M+H]+
Precursor intensity: 134.5
m/z	relative intensity
65.0409	28
92.0496	58
138.0568	58
148.0408	370
166.0516	787
184.0635	999
