Mass spectrum: DEOXYCARNITINE; LC-ESI-QTOF; MS2; CE: 10;  [M+H]+
Name: DEOXYCARNITINE
Class: NA
Formula: C7H15NO2
Exact mass: 145.1103
SMILES: C[N+](C)(CCCC([O-])=O)C
InChI: InChI=1S/C7H15NO2/c1-8(2,3)6-4-5-7(9)10/h4-6H2,1-3H3
Instrument: Agilent 6530Â Q-TOF LC/MS
Instrument type: LC-ESI-QTOF
Ms type: MS2
Ion mode: POSITIVE
Ionization: ESI
Collision energy: 10
Column name: NA
Retention time: 0.200 min
Base peak: 146.12115
Precursor m/z: 146.12115
Precursor type: [M+H]+
Precursor intensity: 155.5
m/z	relative intensity
43.0189	211
45.035	318
60.0817	492
87.0445	936
146.1178	999
