Mass spectrum: Uric acid; LC-ESI-ITFT; MS2; CE: 30;  [M+H]+
Name: Uric acid
Class: Organoheterocyclic compounds; Imidazopyrimidines; Purines and purine derivatives
Formula: C5H4N4O3
Exact mass: 168.02834
SMILES: O=C1NC2=C(N1)C(=O)NC(=O)N2
InChI: InChI=1S/C5H4N4O3/c10-3-1-2(7-4(11)6-1)8-5(12)9-3/h(H4,6,7,8,9,10,11,12)
Instrument: Thermo Scientific Q-Exactive Focus
Instrument type: LC-ESI-ITFT
Ms type: MS2
Ion mode: POSITIVE
Ionization: ESI
Collision energy: 30
Column name: Acquity CSHC18
Retention time: 0.915 min
Base peak: 169.03561
Precursor m/z: 169.03561
Precursor type: [M+H]+
m/z	relative intensity
55.0297	866
70.0405	420
79.0547	422
81.0703	536
86.9931	501
96.0196	583
100.0246	377
105.0036	999
118.0351	530
126.0299	486
