Mass spectrum: uracil; LC-ESI-QTOF; MS2; CE: -10, -35, -60V;  [M-H]-
Name: uracil
Class: NA
Formula: C4H4N2O2
Exact mass: 112.0273
SMILES: C1=CNC(=O)NC1=O
InChI: InChI=1S/C4H4N2O2/c7-3-1-2-5-4(8)6-3/h1-2H,(H2,5,6,7,8)
Instrument: TripleToF 5600; Sciex
Instrument type: LC-ESI-QTOF
Ms type: MS2
Ion mode: NEGATIVE
Ionization: ESI
Collision energy: -10, -35, -60V
Column name: Acquity CSHC18
Retention time: 0.770 min
Base peak: 111.0220
Precursor m/z: 111.0220
Precursor type: [M-H]-
Precursor intensity: 54297.94
m/z	relative intensity
103.0326	50
103.0397	51
111.0228	999
