Mass spectrum: β-Isoalantolactone-Glutathione; LC-ESI-ITFT; MS2; CE: 50eV;  [M+H]+
Name: β-Isoalantolactone-Glutathione
Class: Sesquiterpenelactone; Eudesmanolide
Formula: C25H37N3O8S
Exact mass: 539.2301
SMILES: O=C(O)[C@@H](N)CCC(=O)N[C@@H](CSCC1C(=O)O[C@@H]2C[C@@]3(C)CCCC(=C)C3C[C@H]12)C(=O)NCC(=O)O
InChI: InChI=1S/C25H37N3O8S/c1-13-4-3-7-25(2)9-19-14(8-16(13)25)15(24(35)36-19)11-37-12-18(22(32)27-10-21(30)31)28-20(29)6-5-17(26)23(33)34/h14-19H,1,3-12,26H2,2H3,(H,27,32)(H,28,29)(H,30,31)(H,33,34)/t14-,15?,16?,17+,18+,19-,25-/m1/s1
Instrument: Q Exactive Plus, ThermoFisher Scientific
Instrument type: LC-ESI-ITFT
Ms type: MS2
Ion mode: POSITIVE
Ionization: ESI
Collision energy: 50eV
Column name: Acquity CSHC18
Retention time: 7.074 min
Base peak: 540.2374
Precursor m/z: 540.2374
Precursor type: [M+H]+
Precursor intensity: 1251082000
m/z	relative intensity
69.1474	39
76.0225	39
84.0447	40
95.0865	41
105.0698	43
107.0852	48
119.0859	54
129.0657	54
130.049	94
131.0848	103
137.0594	103
151.0747	118
159.1169	134
161.1314	138
162.0216	141
179.0471	149
183.0463	152
187.1469	155
189.164	159
215.1419	197
219.1201	203
231.1389	219
233.0572	265
233.1521	321
265.1263	330
290.1581	383
308.1693	511
348.1598	530
394.1678	560
411.1928	660
465.2053	834
540.2382	999
