Mass spectrum: U-46619; ESI-TOF; MS2; CE: 0.6458333;  [M+H]+
Name: U-46619
Class: NA
Formula: C21H34O4
Exact mass: 350.24571
SMILES: CCCCC[C@H](O)/C=C/[C@H]1C2OCC(C2)[C@@H]1C/C=C\CCCC(O)=O
InChI: InChI=1S/C21H34O4/c1-2-3-6-9-17(22)12-13-19-18(16-14-20(19)25-15-16)10-7-4-5-8-11-21(23)24/h4,7,12-13,16-20,22H,2-3,5-6,8-11,14-15H2,1H3,(H,23,24)/b7-4-,13-12+/t16?,17-,18-,19+,20?/m0/s1
Instrument: waters xevo g2 TOF
Instrument type: ESI-TOF
Ms type: MS2
Ion mode: POSITIVE
Ionization: ESI
Collision energy: 0.6458333
Column name: Acquity CSHC18
Retention time: 4.309 min
Base peak: 351.25371
Precursor m/z: 351.25371
Precursor type: [M+H]+
m/z	relative intensity
67.0544	125
79.055	210
85.0645	21
91.054	508
93.0707	476
95.0865	284
105.0715	507
107.0874	260
109.1015	88
115.056	28
117.0713	498
119.0863	461
120.0909	37
121.1022	223
123.1188	42
128.0629	39
129.0712	382
131.0867	742
132.0924	87
133.1014	272
135.1184	123
141.0714	68
143.0863	452
144.0905	49
145.1027	57
146.1054	52
147.1173	197
148.1208	20
149.0956	79
155.0859	183
157.1026	429
159.1174	163
161.134	151
163.1487	52
167.087	66
169.0999	247
171.1202	391
172.1229	49
173.1326	70
175.149	62
179.1059	32
181.1034	211
182.0017	22
183.1159	215
185.0722	274
186.097	10
187.078	77
188.1502	25
189.165	71
191.1055	17
195.104	161
197.1327	87
199.1135	244
201.1413	100
202.1692	16
203.1804	43
205.1426	39
209.133	146
211.1453	31
213.1273	135
215.1788	51
217.1576	81
221.1545	21
223.1481	71
227.1435	82
231.1369	40
233.154	27
245.1517	61
253.1955	61
255.211	105
259.204	39
263.2004	8
265.2164	73
267.2115	34
269.2258	211
279.2117	209
280.2151	40
285.2222	62
287.2356	54
289.2137	29
297.2218	381
298.2255	79
303.2328	137
304.2351	27
315.2319	999
316.1972	117
317.1815	34
318.1291	378
319.1325	78
333.2423	340
334.243	50
339.2523	57
341.176	226
342.1836	34
353.1776	157
