Mass spectrum: Ginkgolide C; LC-ESI-QFT; MS2; CE: 15,30,45 (NCE);  [2M+NH4]+
Name: Ginkgolide C
Class: NA
Formula: C20H24O11
Exact mass: 440.1319
SMILES: CC1C(=O)OC2C(O)C34C5OC(=O)C3(OC3OC(=O)C(O)C43C(C5O)C(C)(C)C)C12O
InChI: InChI=1S/C20H24O11/c1-5-12(24)28-11-8(22)18-10-6(21)7(16(2,3)4)17(18)9(23)13(25)30-15(17)31-20(18,14(26)29-10)19(5,11)27/h5-11,15,21-23,27H,1-4H3
Instrument: QE Focus, Thermo Scientfic; UPLC I-Class, Waters
Instrument type: LC-ESI-QFT
Ms type: MS2
Ion mode: POSITIVE
Ionization: ESI
Collision energy: 15,30,45 (NCE)
Column name: Acquity CSHC18
Retention time: 1.552 min
Base peak: 898.2996
Precursor m/z: 898.2996
Precursor type: [2M+NH4]+
Precursor intensity: 1249393
m/z	relative intensity
75.2328	16
77.1598	16
91.1446	15
119.0758	17
206.6856	17
229.0475	20
246.7169	19
247.0615	28
249.4864	16
251.0574	16
253.9787	22
271.4288	17
325.0554	79
382.3683	58
382.4102	39
382.4569	28
395.1359	21
441.1403	174
458.1669	999
459.1529	165
613.8634	20
