Mass spectrum: 16,16-dimethyl Prostaglandin E2 p-(p-acetamidobenzamido) phenyl ester; ESI-TOF; MS2; CE: 6.0000000;  [M+H]+
Name: 16,16-dimethyl Prostaglandin E2 p-(p-acetamidobenzamido) phenyl ester
Class: NA
Formula: C37H48N2O7
Exact mass: 632.34615
SMILES: O=C1[C@H](C/C=C\CCCC(OC2=CC=C(NC(C3=CC=C(NC(C)=O)C=C3)=O)C=C2)=O)[C@@H](/C=C/[C@@H](O)C(C)(C)CCCC)[C@H](O)C1
InChI: InChI=1S/C37H48N2O7/c1-5-6-23-37(3,4)34(43)22-21-31-30(32(41)24-33(31)42)11-9-7-8-10-12-35(44)46-29-19-17-28(18-20-29)39-36(45)26-13-15-27(16-14-26)38-25(2)40/h7,9,13-22,30-31,33-34,42-43H,5-6,8,10-12,23-24H2,1-4H3,(H,38,40)(H,39,45)/b9-7-,22-21+/t30-,31-,33-,34-/m1/s1
Instrument: waters xevo g2 TOF
Instrument type: ESI-TOF
Ms type: MS2
Ion mode: POSITIVE
Ionization: ESI
Collision energy: 6.0000000
Column name: Acquity CSHC18
Retention time: 4.533 min
Base peak: 633.35415
Precursor m/z: 633.35415
Precursor type: [M+H]+
m/z	relative intensity
271.1072	15
272.1104	2
285.1054	1
318.1434	5
327.1904	41
327.65	21
328.1918	5
335.1366	8
336.151	16
345.2401	2
503.2186	16
504.2221	5
545.3361	2
579.3171	1
597.3328	195
598.3354	80
599.3361	12
600.3478	1
615.3429	999
616.3463	434
617.3507	95
618.3503	11
629.3657	1
