Mass spectrum: quinidine; LC-ESI-QFT; MS2; CE: 15,30,45 (NCE);  [M+ACN+2H]2+
Name: quinidine
Class: NA
Formula: C20H24N2O2
Exact mass: 324.1838
SMILES: COC1=CC2=C(C=CN=C2C=C1)C(O)C1CC2CCN1CC2C=C
InChI: InChI=1S/C20H24N2O2/c1-3-13-12-22-9-7-14(13)10-19(22)20(23)16-6-8-21-18-5-4-15(24-2)11-17(16)18/h3-6,8,11,13-14,19-20,23H,1,7,9-10,12H2,2H3
Instrument: QE Focus, Thermo Scientfic; UPLC I-Class, Waters
Instrument type: LC-ESI-QFT
Ms type: MS2
Ion mode: POSITIVE
Ionization: ESI
Collision energy: 15,30,45 (NCE)
Column name: Acquity CSHC18
Retention time: 1.079 min
Base peak: 183.6126
Precursor m/z: 183.6126
Precursor type: [M+ACN+2H]2+
Precursor intensity: 66631130
m/z	relative intensity
68.0544	106
69.0644	125
80.0479	161
81.0644	163
94.072	201
95.0799	274
96.0791	466
107.0706	520
108.0872	584
109.0773	613
122.0784	618
136.0941	755
158.0717	999
