Mass spectrum: 13,14-dihydro Prostaglandin F1-alpha; ESI-TOF; MS2; CE: 6.0000000;  [M+H]+
Name: 13,14-dihydro Prostaglandin F1-alpha
Class: NA
Formula: C20H38O5
Exact mass: 358.27192
SMILES: O[C@@H]1[C@H](CCCCCCC(O)=O)[C@@H](CC[C@@H](O)CCCCC)[C@H](O)C1
InChI: InChI=1S/C20H38O5/c1-2-3-6-9-15(21)12-13-17-16(18(22)14-19(17)23)10-7-4-5-8-11-20(24)25/h15-19,21-23H,2-14H2,1H3,(H,24,25)/t15-,16+,17+,18-,19+/m0/s1
Instrument: waters xevo g2 TOF
Instrument type: ESI-TOF
Ms type: MS2
Ion mode: POSITIVE
Ionization: ESI
Collision energy: 6.0000000
Column name: Acquity CSHC18
Retention time: 3.836 min
Base peak: 359.27992
Precursor m/z: 359.27992
Precursor type: [M+H]+
m/z	relative intensity
95.0864	1
109.1031	3
121.1022	1
135.1173	2
149.1334	2
173.1323	3
177.1636	5
188.1155	1
189.163	2
190.1128	17
193.1601	1
207.1404	5
209.155	11
210.6229	2
223.1711	7
235.1698	8
237.1872	1
269.2265	8
279.2312	6
287.237	48
288.2406	9
305.2476	999
306.2515	234
307.2541	24
323.2049	343
324.2622	159
325.2619	17
337.1683	13
341.2698	123
342.2702	26
343.2831	1
351.2314	9
351.7355	4
359.2806	146
360.2811	32
360.7441	5
361.2008	1
