Mass spectrum: Cytidine; LC-ESI-QTOF; MS2; CE: 15 / 50;  [M+H]+
Name: Cytidine
Class: NA
Formula: C9H13N3O5
Exact mass: 243.08552
SMILES: C1=CN(C(=O)N=C1N)C2C(C(C(O2)CO)O)O
InChI: InChI=1S/C9H13N3O5/c10-5-1-2-12(9(16)11-5)8-7(15)6(14)4(3-13)17-8/h1-2,4,6-8,13-15H,3H2,(H2,10,11,16)
Instrument: impact II
Instrument type: LC-ESI-QTOF
Ms type: MS2
Ion mode: POSITIVE
Ionization: ESI
Collision energy: 15 / 50
Column name: Acquity CSHC18
Retention time: 0.596 min
Base peak: 244.09270
Precursor m/z: 244.09270
Precursor type: [M+H]+
m/z	relative intensity
95.0241	214
112.0506	999
