Mass spectrum: 3-AMINO-4-HYDROXYBENZOATE; LC-ESI-QTOF; MS2; CE: 40;  [M+H]+
Name: 3-AMINO-4-HYDROXYBENZOATE
Class: NA
Formula: C7H7NO3
Exact mass: 153.04259
SMILES: C1=CC(=C(C=C1C(=O)O)N)O
InChI: InChI=1S/C7H7NO3/c8-5-3-4(7(10)11)1-2-6(5)9/h1-3,9H,8H2,(H,10,11)
Instrument: Agilent 6530Â Q-TOF LC/MS
Instrument type: LC-ESI-QTOF
Ms type: MS2
Ion mode: POSITIVE
Ionization: ESI
Collision energy: 40
Column name: NA
Retention time: 0.200 min
Base peak: 154.04785
Precursor m/z: 154.04785
Precursor type: [M+H]+
Precursor intensity: 105.5
m/z	relative intensity
40.0229	97
44.0116	104
51.023	115
52.0164	117
53.0462	147
54.0362	160
63.0449	165
64.0248	165
65.0422	193
66.0444	201
68.0198	203
78.0342	223
79.0373	285
80.0672	316
90.0446	425
106.0306	681
108.0525	991
118.0278	999
