Mass spectrum: Misoprostol; ESI-TOF; MS2; CE: 0.6458333;  [M+H]+
Name: Misoprostol
Class: NA
Formula: C22H38O5
Exact mass: 382.27192
SMILES: CCCCC(C)(O)C/C=C/[C@H]1C(O)CC(=O)C1CCCCCCC(=O)OC
InChI: InChI=1S/C22H38O5/c1-4-5-14-22(2,26)15-10-12-18-17(19(23)16-20(18)24)11-8-6-7-9-13-21(25)27-3/h10,12,17-18,20,24,26H,4-9,11,13-16H2,1-3H3/b12-10+/t17?,18-,20?,22?/m1/s1
Instrument: waters xevo g2 TOF
Instrument type: ESI-TOF
Ms type: MS2
Ion mode: POSITIVE
Ionization: ESI
Collision energy: 0.6458333
Column name: Acquity CSHC18
Retention time: 4.122 min
Base peak: 383.27992
Precursor m/z: 383.27992
Precursor type: [M+H]+
m/z	relative intensity
69.0694	109
70.9794	32
81.0701	404
83.0488	29
85.0646	28
91.0549	219
93.0708	473
95.0857	302
97.1006	56
101.0958	49
105.0708	306
107.0862	390
109.1027	180
111.0816	92
117.0711	171
119.0854	294
121.0665	248
123.1172	167
125.0973	83
131.0867	383
132.0914	37
133.1021	308
135.1188	120
137.1323	54
143.0861	195
145.1021	366
147.1171	266
149.13	62
151.1118	24
155.0883	58
158.104	26
160.087	36
161.0975	322
163.1485	106
169.1005	38
171.1175	199
172.1254	20
173.1334	209
175.1478	95
177.1621	30
183.0138	29
187.1475	192
189.1288	178
193.0528	36
195.1161	55
197.1316	67
199.1127	161
203.1441	63
213.1461	64
217.159	494
218.1416	71
225.0796	41
231.1393	31
233.1547	187
239.0954	282
240.0989	20
241.0556	35
255.0655	61
269.2277	33
273.2218	37
288.2362	43
297.2204	219
305.2491	111
306.2524	17
308.1078	33
315.233	999
316.2342	223
317.2421	26
321.1358	255
322.1455	23
326.3813	64
329.2445	21
331.099	21
332.1076	55
333.2413	154
334.2466	43
335.1534	19
336.1046	374
337.1102	481
339.1832	52
347.258	91
350.1698	35
365.2696	109
366.2302	52
368.1824	47
375.2371	248
375.7394	126
384.2432	648
384.744	302
385.2387	82
