Mass spectrum: S-CARBOXYMETHYLCYSTEINE; LC-ESI-QTOF; MS2; CE: 10;  [M+H]+
Name: S-CARBOXYMETHYLCYSTEINE
Class: NA
Formula: C5H9NO4S
Exact mass: 179.02523
SMILES: NC(CSCC(O)=O)C(O)=O
InChI: InChI=1S/C5H9NO4S/c6-3(5(9)10)1-11-2-4(7)8/h3H,1-2,6H2,(H,7,8)(H,9,10)
Instrument: Agilent 6530Â Q-TOF LC/MS
Instrument type: LC-ESI-QTOF
Ms type: MS2
Ion mode: POSITIVE
Ionization: ESI
Collision energy: 10
Column name: NA
Retention time: 0.200 min
Base peak: 180.02830
Precursor m/z: 180.02830
Precursor type: [M+H]+
Precursor intensity: 63.5
m/z	relative intensity
44.0438	40
46.9956	41
59.0071	42
61.0294	72
73.0292	95
74.0219	108
74.9989	116
87.0036	145
88.0411	173
89.036	176
102.993	187
105.0064	220
116.0255	221
117.0184	249
134.0441	253
135.0246	253
144.9882	323
162.0306	431
163.0353	442
180.0583	999
