Mass spectrum: CMP; LC-ESI-QTOF; MS2; CE: 15 / 50;  [M+H]+
Name: CMP
Class: NA
Formula: C9H14N3O8P
Exact mass: 323.05185
SMILES: C1=CN(C(=O)N=C1N)C2C(C(C(O2)COP(=O)(O)O)O)O
InChI: InChI=1S/C9H14N3O8P/c10-5-1-2-12(9(15)11-5)8-7(14)6(13)4(20-8)3-19-21(16,17)18/h1-2,4,6-8,13-14H,3H2,(H2,10,11,15)(H2,16,17,18)
Instrument: impact II
Instrument type: LC-ESI-QTOF
Ms type: MS2
Ion mode: POSITIVE
Ionization: ESI
Collision energy: 15 / 50
Column name: Acquity CSHC18
Retention time: 0.597 min
Base peak: 324.05900
Precursor m/z: 324.05900
Precursor type: [M+H]+
m/z	relative intensity
59.05	1
69.0348	4
69.0454	10
94.0398	20
95.0239	69
95.0363	2
96.0273	3
97.0286	44
98.0317	3
112.0505	999
112.0634	82
112.0761	1
112.0981	4
112.1195	10
112.1271	12
112.1353	18
112.1513	6
112.1866	2
112.1948	3
112.2353	1
112.36	1
113.0535	48
114.0549	2
226.0798	1
324.0591	41
324.0806	1
324.1673	1
325.063	2
326.3786	1
