Mass spectrum: Quercitrin; LC-ESI-ITFT; MS2; CE: 0.3;  [M+H]+
Name: Quercitrin
Class: flavonol glycosides
Formula: C21H20O11
Exact mass: 448.1006
SMILES: CC1C(C(C(C(O1)OC2=C(OC3=CC(=CC(=C3C2=O)O)O)C4=CC(=C(C=C4)O)O)O)O)O
InChI: InChI=1S/C21H20O11/c1-7-15(26)17(28)18(29)21(30-7)32-20-16(27)14-12(25)5-9(22)6-13(14)31-19(20)8-2-3-10(23)11(24)4-8/h2-7,15,17-18,21-26,28-29H,1H3
Instrument: LTQ-Orbitrap XL hybrid mass spectrometer (Thermo Scientific)
Instrument type: LC-ESI-ITFT
Ms type: MS2
Ion mode: POSITIVE
Ionization: ESI
Collision energy: 0.3
Column name: Acquity CSHC18
Retention time: 5.844 min
Base peak: 449.1058
Precursor m/z: 449.1058
Precursor type: [M+H]+
Precursor intensity: 7962088
m/z	relative intensity
166.9497	2
197.3417	1
246.8343	1
287.0106	2
300.7699	2
302.5458	1
302.566	1
302.6427	1
302.6759	1
302.7057	1
302.7385	1
302.7657	1
302.7833	1
302.8034	2
302.8328	2
302.843	2
302.8657	2
302.8843	3
302.9131	3
302.9508	4
302.965	4
302.9906	5
303.0493	999
303.0914	3
303.1189	5
303.1347	5
303.1542	4
303.1799	3
303.1938	3
303.2174	2
303.2467	2
303.2822	2
303.3111	2
303.3358	1
303.3462	1
303.3707	1
303.3935	1
303.4218	1
303.4423	1
303.4586	1
304.0528	58
305.3552	3
324.083	2
345.0602	5
369.0612	2
413.0851	18
414.0845	1
424.1403	1
431.096	15
