Mass spectrum: SINAPIC ACID; LC-ESI-QTOF; MS2; CE: 20-40eV;  [M+H-H2O]+
Name: SINAPIC ACID
Class: Hydroxycinnamic acids and derivatives
Formula: C11H12O5
Exact mass: 224.0685
SMILES: COC=1C=C(C(=C(C(=O)O)[H])[H])C=C(C1O)OC
InChI: InChI=1S/C11H12O5/c1-15-8-5-7(3-4-10(12)13)6-9(16-2)11(8)14/h3-6,14H,1-2H3,(H,12,13)
Instrument: Impact II, Bruker; Dionex 3000, Thermo Scientific
Instrument type: LC-ESI-QTOF
Ms type: MS2
Ion mode: POSITIVE
Ionization: ESI
Collision energy: 20-40eV
Column name: Acquity CSHC18
Retention time: 3.999 min
Base peak: 207.0652
Precursor m/z: 207.0652
Precursor type: [M+H-H2O]+
Precursor intensity: 111632.8
m/z	relative intensity
95.0663	32
105.0521	35
107.0664	69
108.055	80
146.0488	101
147.0215	115
149.0383	999
