Mass spectrum: Di-coumaroyl spermidine; LC-ESI-ITFT; MS2; CE: 35eV;  [M]+
Name: Di-coumaroyl spermidine
Class: Phenolamide
Formula: [C25H32N3O4]+
Exact mass: 438.2387
SMILES: C1=CC(=CC=C1C=CC(=O)NCCCC[NH2+]CCCNC(=O)C=CC2=CC=C(C=C2)O)O
InChI: InChI=1S/C25H31N3O4/c29-22-10-4-20(5-11-22)8-14-24(31)27-18-2-1-16-26-17-3-19-28-25(32)15-9-21-6-12-23(30)13-7-21/h4-15,26,29-30H,1-3,16-19H2,(H,27,31)(H,28,32)/p+1
Instrument: LTQ Orbitrap XL, Thermo Scientfic; Dionex Ultimate 300
Instrument type: LC-ESI-ITFT
Ms type: MS2
Ion mode: POSITIVE
Ionization: ESI
Collision energy: 35eV
Column name: Lichrospher C18 Column 250*4 5um, Interchim
Retention time: 46.56 min
Base peak: 438.2383
Precursor m/z: 438.2383
Precursor type: [M]+
m/z	relative intensity
129.1272	2
146.9561	264
147.8907	3
154.9446	14
157.0513	1
172.0823	15
175.9659	2
198.0699	5
203.2308	103
203.9642	999
205.0865	20
217.9898	161
219.021	3
220.9877	27
235.1262	9
247.0844	10
257.1616	1
261.131	1
274.0823	57
275.1177	142
276.1931	2
292.1216	532
293.2316	16
301.1796	3
317.1282	11
318.1158	18
319.345	1
339.1198	1
438.1364	1
