Mass spectrum: Oxypeucedanin; LC-ESI-ITFT; MS2; CE: 45eV;  [M+H]+
Name: Oxypeucedanin
Class: coumarin
Formula: C16H14O5
Exact mass: 286.0841
SMILES: CC1(C(O1)COC2=C3C=CC(=O)OC3=CC4=C2C=CO4)C
InChI: InChI=1S/C16H14O5/c1-16(2)13(21-16)8-19-15-9-3-4-14(17)20-12(9)7-11-10(15)5-6-18-11/h3-7,13H,8H2,1-2H3
Instrument: LTQ Orbitrap XL, Thermo Scientfic; Dionex Ultimate 300
Instrument type: LC-ESI-ITFT
Ms type: MS2
Ion mode: POSITIVE
Ionization: ESI
Collision energy: 45eV
Column name: Alltima C18
Retention time: 20.2 min
Base peak: 287.0905
Precursor m/z: 287.0905
Precursor type: [M+H]+
m/z	relative intensity
189.058	22
200.9633	999
213.104	14
214.9606	470
229.0374	15
