Mass spectrum: Myricetin; LC-ESI-QTOF; MS2; CE: 50eV;  [M+H]+
Name: Myricetin
Class: Flavonol
Formula: C15H10O8
Exact mass: 318.0376
SMILES: C1=C(C=C(C(=C1O)O)O)C2=C(C(=O)C3=C(C=C(C=C3O2)O)O)O
InChI: InChI=1S/C15H10O8/c16-6-3-7(17)11-10(4-6)23-15(14(22)13(11)21)5-1-8(18)12(20)9(19)2-5/h1-4,16-20,22H
Instrument: TIMS-TOF Pro, Bruker Daltonik; Elute UHPLC System, Bruker Daltonik
Instrument type: LC-ESI-QTOF
Ms type: MS2
Ion mode: POSITIVE
Ionization: ESI
Collision energy: 50eV
Column name: Acquity CSHC18
Retention time: 5.967 min
Base peak: 319.0425
Precursor m/z: 319.0425
Precursor type: [M+H]+
Precursor intensity: 70959.94
m/z	relative intensity
51.025	7
68.9897	8
105.064	8
115.0534	5
137.0236	18
151.0396	6
152.9997	16
154.4436	3
161.0611	13
183.9677	3
190.0601	7
193.0532	6
216.8382	4
217.0461	17
243.5966	10
245.0449	19
261.0392	5
274.04	7
301.0335	12
318.0174	5
319.0114	16
319.0425	999
