Mass spectrum: Putative_(4aR,5R,7S,8S,8aS)-5-[[(3S,6aR,6bS,14bR)-4,4,6a,6b,11,11,14b-heptamethyl-8a-[(2S,3R,4S,5S,6R)-3,4,5-trihydroxy-6-(hydroxymethyl)oxan-2-yl]oxycarbonyl-1,2,3,4a,5,6,7,8,9,10,12,12a,14,14a-tetradecahydropicen-3-yl]oxy]-3-(carboxymethoxy)-8-hydroxy-3,4a,5,7,8,8a-hexahydro-2H-pyrano[3,4-b][1,4]dioxine-2,7-dicarboxylic acid; LC-ESI-QTOF; MS2; CE: 20-40eV;  [M+NH4]+
Name: Putative_(4aR,5R,7S,8S,8aS)-5-[[(3S,6aR,6bS,14bR)-4,4,6a,6b,11,11,14b-heptamethyl-8a-[(2S,3R,4S,5S,6R)-3,4,5-trihydroxy-6-(hydroxymethyl)oxan-2-yl]oxycarbonyl-1,2,3,4a,5,6,7,8,9,10,12,12a,14,14a-tetradecahydropicen-3-yl]oxy]-3-(carboxymethoxy)-8-hydroxy-3,4a,5,7,8,8a-hexahydro-2H-pyrano[3,4-b][1,4]dioxine-2,7-dicarboxylic acid
Class: Triterpene saponins
Formula: C47H70O19
Exact mass: 938.4511
SMILES: CC1(C)CCC2(CCC3(C)C(=CCC4(C5(C)CCC(C(C)(C)C5(CCC43C)[H])(OC6(C7(C(C(C(C(=O)O)(O6)[H])(O)[H])(OC(C(=O)O)(C(OCC(=O)O)(O7)[H])[H])[H])[H])[H])[H])[H])C2(C1)[H])C(=O)OC8(C(C(C(C(CO)(O8)[H])(O)[H])(O)[H])(O)[H])[H]
InChI: InChI=1S/C47H70O19/c1-42(2)14-16-47(41(59)66-38-30(53)29(52)28(51)23(19-48)61-38)17-15-45(6)21(22(47)18-42)8-9-25-44(5)12-11-26(43(3,4)24(44)10-13-46(25,45)7)62-40-34-32(31(54)33(64-40)36(55)56)63-35(37(57)58)39(65-34)60-20-27(49)50/h8,22-26,28-35,38-40,48,51-54H,9-20H2,1-7H3,(H,49,50)(H,55,56)(H,57,58)
Instrument: Impact II, Bruker; Dionex 3000, Thermo Scientific
Instrument type: LC-ESI-QTOF
Ms type: MS2
Ion mode: POSITIVE
Ionization: ESI
Collision energy: 20-40eV
Column name: Acquity CSHC18
Retention time: 14.592 min
Base peak: 956.4838
Precursor m/z: 956.4838
Precursor type: [M+NH4]+
Precursor intensity: 32901
m/z	relative intensity
145.0739	7
181.1062	9
192.199	9
219.1918	20
221.1703	21
231.1913	26
247.1567	76
249.2024	138
439.3117	149
439.5197	999
