Mass spectrum: Coumestrol; LC-ESI-QTOF; MS2; CE: 15;  [M-H]-
Name: Coumestrol
Class: NA
Formula: C15H8O5
Exact mass: 268.0372
SMILES: C1=CC2=C(C=C1O)OC3=C2C(=O)OC4=C3C=CC(=C4)O
InChI: InChI=1S/C15H8O5/c16-7-1-3-9-11(5-7)19-14-10-4-2-8(17)6-12(10)20-15(18)13(9)14/h1-6,16-17H
Instrument: Bruker MicrOTOF-Q
Instrument type: LC-ESI-QTOF
Ms type: MS2
Ion mode: NEGATIVE
Ionization: ESI
Collision energy: 15
Column name: Acquity CSHC18
Retention time: NA
Base peak: 267.0299
Precursor m/z: 267.0299
Precursor type: [M-H]-
m/z	relative intensity
146.8438	34
277.6653	999
290.6067	7
292.0468	9
292.7137	9
293.3324	6
295.2193	5
296.1694	6
297.7137	7
298.833	7
300.7224	6
302.3212	6
304.2049	6
305.4339	4
306.0885	8
306.6367	10
308.0038	5
308.7053	10
309.1523	5
310.6267	8
311.9702	7
312.4284	8
313.9726	6
315.0194	5
315.5664	9
316.5855	9
317.2234	13
317.6479	10
318.3009	7
319.7327	8
321.743	4
322.942	7
323.7238	9
325.0558	5
325.9262	7
327.8408	5
329.5814	6
330.524	10
331.7395	9
334.0879	5
335.0713	5
335.637	10
336.2181	7
337.0002	8
337.5758	5
338.5939	9
341.602	8
342.4553	8
343.253	8
344.3225	6
345.8017	6
346.9457	7
349.4229	8
349.9104	12
350.6643	10
351.2879	8
352.3713	8
353.0527	7
354.0467	5
354.995	9
356.1976	11
357.7046	8
360.4768	7
361.2931	11
362.9766	10
363.5328	6
365.6427	9
366.7133	10
367.482	7
371.7705	7
372.2758	8
375.823	8
377.9457	8
381.6713	9
383.1643	7
384.399	8
386.6559	9
388.8	6
390.2524	8
391.5372	11
393.7132	9
394.4869	9
397.0965	9
397.8496	6
401.2707	18
402.7101	9
403.5925	7
406.1222	10
407.0248	13
411.872	6
418.6856	8
419.366	7
420.6955	8
422.3242	10
422.7452	9
423.1576	5
423.7868	9
424.3208	6
426.2378	8
429.6048	4
431.8303	5
433.2674	8
434.4143	10
435.7451	7
438.0247	7
439.3212	6
440.4656	7
442.0003	8
445.7831	8
447.0985	8
448.5185	6
449.9392	8
451.0074	7
451.8158	9
452.5514	8
457.563	9
458.4032	10
459.9794	8
461.7982	7
466.0821	9
474.9047	8
476.1017	7
478.4568	8
480.7397	9
481.5963	5
482.8096	8
483.789	6
487.4283	10
492.1109	8
493.7689	7
496.0944	8
497.3717	5
498.0682	5
507.2451	5
508.5693	8
520.9736	5
521.8509	8
523.6208	11
524.9429	6
526.296	6
527.0288	6
527.6025	7
528.589	8
533.5879	9
537.3001	7
542.1737	6
544.0938	6
546.845	5
552.9278	7
555.5581	10
561.2975	4
566.1114	9
573.6082	6
580.4861	4
580.9212	5
589.6471	9
599.2399	5
603.8361	10
606.6987	9
623.7206	4
624.484	13
626.6268	5
630.3145	7
634.8214	8
635.401	6
638.8923	9
643.6834	5
645.004	9
670.489	11
714.2806	7
714.6865	8
722.7193	4
729.8987	6
731.1985	7
736.7288	5
744.231	5
749.0558	5
750.9521	5
760.9488	5
825.15	4
868.841	5
889.3684	5
901.4706	6
938.8243	4
948.4384	8
1000.0606	9
