Mass spectrum: 4-Methylcinnamic acid; LC-ESI-QTOF; MS2; CE: 15.00;  [M-H2O+H]+
Name: 4-Methylcinnamic acid
Class: NA
Formula: C10H10O2
Exact mass: 162.0681
SMILES: CC1=CC=C(C=C1)C=CC(=O)O
InChI: InChI=1S/C10H10O2/c1-8-2-4-9(5-3-8)6-7-10(11)12/h2-7H,1H3,(H,11,12)
Instrument: Bruker MicrOTOF-Q
Instrument type: LC-ESI-QTOF
Ms type: MS2
Ion mode: POSITIVE
Ionization: ESI
Collision energy: 15.00
Column name: Acquity CSHC18
Retention time: NA
Base peak: 145.0648
Precursor m/z: 145.0648
Precursor type: [M-H2O+H]+
m/z	relative intensity
115.0529	860
116.0578	118
117.0681	312
118.072	48
120.7178	3
145.0645	999
146.0681	105
