Mass spectrum: 16-methoxyhörhammericine; ESI-QTOF; MS2; CE: 30 eV;  [M+H]+
Name: 16-methoxyhörhammericine
Class: NA
Formula: C22H26N2O5
Exact mass: 398.1842
SMILES: CC(C12CC(=C3C4(CCN(CC5(C1(O5)[H])[H])C42[H])C=6C=CC(=CC6N3)OC)C(=O)OC)(O)[H]
InChI: InChI=1S/C22H26N2O5/c1-11(25)22-9-13(19(26)28-3)17-21(14-5-4-12(27-2)8-15(14)23-17)6-7-24(20(21)22)10-16-18(22)29-16/h4-5,8,11,16,18,20,23,25H,6-7,9-10H2,1-3H3
Instrument: Synapt (HDMS 1st gen)
Instrument type: ESI-QTOF
Ms type: MS2
Ion mode: POSITIVE
Ionization: ESI
Collision energy: 30 eV
Column name: Acquity CSHC18
Retention time: 7.788 min
Base peak: 399.1947
Precursor m/z: 399.1947
Precursor type: [M+H]+
Precursor intensity: 4607.11
m/z	relative intensity
183.0682	27
198.0902	27
199.0967	32
226.0843	32
227.0912	38
258.111	38
259.1227	39
323.1512	51
339.1699	80
349.1556	143
355.1693	216
368.1706	269
381.183	419
382.1855	797
399.1841	999
