Mass spectrum: Gluconasturtiin; LC-ESI-QTOF; MS2; CE: 15.00;  [M-C6H10O8S+H]+
Name: Gluconasturtiin
Class: NA
Formula: C15H21NO9S2
Exact mass: 423.0658
SMILES: C1=CC=C(C=C1)CCC(=NOS(=O)(=O)O)SC2C(C(C(C(O2)CO)O)O)O
InChI: InChI=1S/C15H21NO9S2/c17-8-10-12(18)13(19)14(20)15(24-10)26-11(16-25-27(21,22)23)7-6-9-4-2-1-3-5-9/h1-5,10,12-15,17-20H,6-8H2,(H,21,22,23)
Instrument: Bruker MicrOTOF-Q
Instrument type: LC-ESI-QTOF
Ms type: MS2
Ion mode: POSITIVE
Ionization: ESI
Collision energy: 15.00
Column name: Acquity CSHC18
Retention time: NA
Base peak: 182.0634
Precursor m/z: 182.0634
Precursor type: [M-C6H10O8S+H]+
m/z	relative intensity
115.0545	105
128.0446	19
130.0638	999
131.0673	78
136.0197	6
148.0747	11
149.0437	48
149.0478	9
182.0638	14
