Mass spectrum: Alpha-Solanine; LC-ESI-QTOF; MS2; CE: 38.25;  [M+HCOOH-H]-
Name: Alpha-Solanine
Class: NA
Formula: C45H73NO15
Exact mass: 867.4980
SMILES: CC1CCC2C(C3C(N2C1)CC4C3(CCC5C4CC=C6C5(CCC(C6)OC7C(C(C(C(O7)CO)O)OC8C(C(C(C(O8)CO)O)O)O)OC9C(C(C(C(O9)C)O)O)O)C)C)C
InChI: InChI=1S/C45H73NO15/c1-19-6-9-27-20(2)31-28(46(27)16-19)15-26-24-8-7-22-14-23(10-12-44(22,4)25(24)11-13-45(26,31)5)57-43-40(61-41-37(54)35(52)32(49)21(3)56-41)39(34(51)30(18-48)59-43)60-42-38(55)36(53)33(50)29(17-47)58-42/h7,19-21,23-43,47-55H,6,8-18H2,1-5H3
Instrument: Bruker MicrOTOF-Q
Instrument type: LC-ESI-QTOF
Ms type: MS2
Ion mode: NEGATIVE
Ionization: ESI
Collision energy: 38.25
Column name: Acquity CSHC18
Retention time: NA
Base peak: 912.4962
Precursor m/z: 912.4962
Precursor type: [M+HCOOH-H]-
m/z	relative intensity
97.0291	1
101.0214	18
103.037	1
113.0235	65
114.0289	3
115.0331	4
119.0346	11
124.993	12
126.0341	2
127.0393	4
131.0342	11
142.9974	70
144.039	10
145.0484	7
149.0479	4
159.0315	7
160.4566	2
160.9939	54
162.0506	5
163.0595	43
164.0676	2
179.0549	49
180.0594	3
205.0707	102
206.0691	7
233.0601	2
235.0803	4
247.082	49
248.0828	6
257.0662	4
265.0967	7
275.0779	14
276.0818	3
289.0925	98
290.096	13
291.0825	1
295.1024	2
305.0889	4
306.0918	1
307.1036	17
325.1104	10
469.1679	1
480.3404	2
492.3448	63
493.3522	20
494.3551	3
522.3512	8
523.3592	2
558.1049	107
559.1177	29
560.4539	14
561.3858	3
701.6478	2
702.524	2
703.7253	4
704.4373	999
705.1541	143
705.9767	2
706.4417	108
707.4421	21
708.4659	4
720.4321	55
721.436	20
722.4408	9
866.4931	51
867.4883	25
868.5856	4
