Mass spectrum: Bisphenol A diglycidyl ether; ESI-TOF; MS2; CE: 0.6458333;  [M+H]+
Name: Bisphenol A diglycidyl ether
Class: NA
Formula: C21H24O4
Exact mass: 340.16746
SMILES: CC(C)(C1=CC=C(OCC2CO2)C=C1)C1=CC=C(OCC2CO2)C=C1
InChI: InChI=1S/C21H24O4/c1-21(2,15-3-7-17(8-4-15)22-11-19-13-24-19)16-5-9-18(10-6-16)23-12-20-14-25-20/h3-10,19-20H,11-14H2,1-2H3
Instrument: waters xevo g2 TOF
Instrument type: ESI-TOF
Ms type: MS2
Ion mode: POSITIVE
Ionization: ESI
Collision energy: 0.6458333
Column name: Acquity CSHC18
Retention time: 3.946 min
Base peak: 341.17546
Precursor m/z: 341.17546
Precursor type: [M+H]+
m/z	relative intensity
105.07	73
107.049	255
117.0698	59
119.0494	91
133.0644	86
135.0809	438
145.0649	50
147.0808	31
161.096	167
173.0959	10
173.0965	130
175.0596	28
184.0652	1
189.0234	37
190.065	1
191.1069	730
192.1106	83
193.1126	1
195.5727	1
227.0861	1
323.0934	52
323.1614	7
325.1443	193
326.1468	40
335.0967	58
340.1654	19
341.1736	1
358.2016	3
360.2084	1
363.1567	365
363.1569	999
364.076	1
364.1604	242
364.1613	58
365.1614	25
380.1517	39
382.2047	1
388.2118	1
394.0872	17
395.0921	1
395.1809	1
425.1273	115
426.1289	19
443.0977	1
445.0939	1
681.3448	1
