Mass spectrum: dCTP; LC-ESI-QTOF; MS2; CE: -10, -35, -60V;  [M-H]-
Name: dCTP
Class: NA
Formula: C9H16N3O13P3
Exact mass: 466.9896
SMILES: C1C(C(OC1N2C=CC(=NC2=O)N)COP(=O)(O)OP(=O)(O)OP(=O)(O)O)O
InChI: InChI=1S/C9H16N3O13P3/c10-7-1-2-12(9(14)11-7)8-3-5(13)6(23-8)4-22-27(18,19)25-28(20,21)24-26(15,16)17/h1-2,5-6,8,13H,3-4H2,(H,18,19)(H,20,21)(H2,10,11,14)(H2,15,16,17)
Instrument: TripleToF 5600; Sciex
Instrument type: LC-ESI-QTOF
Ms type: MS2
Ion mode: NEGATIVE
Ionization: ESI
Collision energy: -10, -35, -60V
Column name: Acquity CSHC18
Retention time: 15.090 min
Base peak: 465.9836
Precursor m/z: 465.9836
Precursor type: [M-H]-
Precursor intensity: 182346.6
m/z	relative intensity
78.9592	421
158.9259	999
176.9353	54
238.891	56
256.964	100
274.9698	14
368.006	195
386.0163	90
447.967	22
465.9823	263
