Mass spectrum: 4-Hydroxybenzoic acid; LC-ESI-ITFT; MS2; CE: 40;  [M-H]-
Name: 4-Hydroxybenzoic acid
Class: Benzenoids; Benzene and substituted derivatives; Benzoic acids and derivatives
Formula: C7H6O3
Exact mass: 138.03169
SMILES: OC(=O)C1=CC=C(O)C=C1
InChI: InChI=1S/C7H6O3/c8-6-3-1-5(2-4-6)7(9)10/h1-4,8H,(H,9,10)
Instrument: Thermo Scientific Q-Exactive Focus
Instrument type: LC-ESI-ITFT
Ms type: MS2
Ion mode: NEGATIVE
Ionization: ESI
Collision energy: 40
Column name: Acquity CSHC18
Retention time: 1.474 min
Base peak: 137.02441
Precursor m/z: 137.02441
Precursor type: [M-H]-
m/z	relative intensity
65.0384	400
75.0228	60
92.5154	13
93.0334	999
93.1316	8
104.8407	7
114.3792	7
137.477	8
145.1843	8
158.5312	8
