Mass spectrum: Quercetin-3-O-arabinoglucoside; LC-ESI-QTOF; MS2; CE: 50eV;  [M+H]+
Name: Quercetin-3-O-arabinoglucoside
Class: Flavonol
Formula: C26H28O16
Exact mass: 596.1377
SMILES: C1C(C(C(C(O1)OCC2C(C(C(C(O2)OC3=C(OC4=CC(=CC(=C4C3=O)O)O)C5=CC(=C(C=C5)O)O)O)O)O)O)O)O
InChI: InChI=1S/C26H28O16/c27-9-4-12(30)16-14(5-9)40-23(8-1-2-10(28)11(29)3-8)24(19(16)34)42-26-22(37)20(35)18(33)15(41-26)7-39-25-21(36)17(32)13(31)6-38-25/h1-5,13,15,17-18,20-22,25-33,35-37H,6-7H2
Instrument: TIMS-TOF Pro, Bruker Daltonik; Elute UHPLC System, Bruker Daltonik
Instrument type: LC-ESI-QTOF
Ms type: MS2
Ion mode: POSITIVE
Ionization: ESI
Collision energy: 50eV
Column name: Acquity CSHC18
Retention time: 4.843 min
Base peak: 597.1406
Precursor m/z: 597.1406
Precursor type: [M+H]+
Precursor intensity: 29357
m/z	relative intensity
39.0219	5
52.7749	7
71.0488	6
91.0386	5
115.0347	10
133.0487	18
163.0487	6
205.0615	6
218.2728	8
248.3944	8
259.0819	13
302.9001	8
303.0023	20
303.0492	999
303.9835	6
304.0527	107
305.0578	19
306.059	5
345.0434	5
464.9811	4
465.0974	39
466.0252	6
547.8016	7
