Mass spectrum: p-Hydroxyphenylacetic acid; LC-ESI-ITFT; MS2; CE: 60;  [M-H]-
Name: p-Hydroxyphenylacetic acid
Class: Benzenoids; Phenols; 1-hydroxy-2-unsubstituted benzenoids
Formula: C8H8O3
Exact mass: 152.04734
SMILES: OC(=O)CC1=CC=C(O)C=C1
InChI: InChI=1S/C8H8O3/c9-7-3-1-6(2-4-7)5-8(10)11/h1-4,9H,5H2,(H,10,11)
Instrument: Thermo Scientific Q-Exactive Focus
Instrument type: LC-ESI-ITFT
Ms type: MS2
Ion mode: NEGATIVE
Ionization: ESI
Collision energy: 60
Column name: Acquity CSHC18
Retention time: 2.033 min
Base peak: 151.04007
Precursor m/z: 151.04007
Precursor type: [M-H]-
m/z	relative intensity
51.9356	505
62.4699	514
64.925	486
90.976	490
94.9918	999
103.4686	484
116.5811	502
141.919	495
146.8177	498
153.9602	503
