Mass spectrum: 3-Caffeoyl quinic acid; LC-ESI-ITFT; MS2; CE: 35eV;  [M-H]-
Name: 3-Caffeoyl quinic acid
Class: Hydroxycinnamic ester
Formula: C16H18O9
Exact mass: 354.0951
SMILES: C1C(C(C(CC1(C(=O)O)O)OC(=O)C=CC2=CC(=C(C=C2)O)O)O)O
InChI: InChI=1S/C16H18O9/c17-9-3-1-8(5-10(9)18)2-4-13(20)25-12-7-16(24,15(22)23)6-11(19)14(12)21/h1-5,11-12,14,17-19,21,24H,6-7H2,(H,22,23)
Instrument: LTQ Orbitrap XL, Thermo Scientfic; Dionex Ultimate 300
Instrument type: LC-ESI-ITFT
Ms type: MS2
Ion mode: NEGATIVE
Ionization: ESI
Collision energy: 35eV
Column name: Lichrospher C18 Column 250*4 5um, Interchim
Retention time: 17.428 min
Base peak: 353.0860
Precursor m/z: 353.0860
Precursor type: [M-H]-
m/z	relative intensity
179.1022	1
191.1372	3
353.2614	999
