Mass spectrum: 5,6-Dimethylbenzimidazole; LC-ESI-QTOF; MS2; CE: 40;  [M+H]+
Name: 5,6-Dimethylbenzimidazole
Class: NA
Formula: C9H10N2
Exact mass: 146.0844
SMILES: CC1=CC2=C(C=C1C)N=CN2
InChI: InChI=1S/C9H10N2/c1-6-3-8-9(4-7(6)2)11-5-10-8/h3-5H,1-2H3,(H,10,11)
Instrument: Agilent 6560Â Ion Mobility Q-TOF LC/MS
Instrument type: LC-ESI-QTOF
Ms type: MS2
Ion mode: POSITIVE
Ionization: ESI
Collision energy: 40
Column name: Acquity CSHC18
Retention time: 0.200 min
Base peak: 147.0921
Precursor m/z: 147.0921
Precursor type: [M+H]+
Precursor intensity: 135.5
m/z	relative intensity
77.037	694
77.04	824
77.0431	375
77.0462	362
77.0492	236
77.0522	111
77.0553	78
91.0526	353
91.0559	476
91.0592	223
91.0625	182
91.0658	122
91.0692	81
91.0725	46
104.0433	111
104.0468	62
104.0539	29
104.9031	111
104.9066	174
104.9102	111
104.9137	48
104.9173	57
104.9244	29
131.054	182
131.058	999
131.062	675
131.066	348
131.07	280
131.0739	171
131.0779	51
131.0819	38
145.0711	209
145.0753	397
145.0795	236
145.0837	149
145.0879	130
145.092	70
145.0962	29
