Mass spectrum: Cyanidin-3-O-glucoside, Kuromanin, M+; LC-ESI-QTOF; MS2; CE: 26.18;  [M]+
Name: Cyanidin-3-O-glucoside, Kuromanin, M+
Class: NA
Formula: [C21H21O11]+
Exact mass: 449.1078
SMILES: C1=CC(=C(C=C1C2=[O+]C3=CC(=CC(=C3C=C2OC4C(C(C(C(O4)CO)O)O)O)O)O)O)O
InChI: InChI=1S/C21H20O11/c22-7-16-17(27)18(28)19(29)21(32-16)31-15-6-10-12(25)4-9(23)5-14(10)30-20(15)8-1-2-11(24)13(26)3-8/h1-6,16-19,21-22,27-29H,7H2,(H3-,23,24,25,26)/p+1
Instrument: Bruker MicrOTOF-Q
Instrument type: LC-ESI-QTOF
Ms type: MS2
Ion mode: POSITIVE
Ionization: ESI
Collision energy: 26.18
Column name: Acquity CSHC18
Retention time: NA
Base peak: 449.1078
Precursor m/z: 449.1078
Precursor type: [M]+
m/z	relative intensity
257.044	3
285.0391	1
287.0555	999
287.4558	2
288.0578	175
289.0594	24
290.0619	2
