Mass spectrum: PANTOTHENATE; LC-ESI-QTOF; MS2; CE: 10;  [M+H]+
Name: PANTOTHENATE
Class: NA
Formula: C9H17NO5
Exact mass: 219.11067
SMILES: CC(C)(CO)C(O)C(=O)NCCC(O)=O
InChI: InChI=1S/C9H17NO5/c1-9(2,5-11)7(14)8(15)10-4-3-6(12)13/h7,11,14H,3-5H2,1-2H3,(H,10,15)(H,12,13)
Instrument: Agilent 6530Â Q-TOF LC/MS
Instrument type: LC-ESI-QTOF
Ms type: MS2
Ion mode: POSITIVE
Ionization: ESI
Collision energy: 10
Column name: NA
Retention time: 0.200 min
Base peak: 220.11773
Precursor m/z: 220.11773
Precursor type: [M+H]+
Precursor intensity: 115.5
m/z	relative intensity
41.0501	22
42.0345	22
43.0399	23
45.0499	23
55.0457	23
56.0152	24
57.0844	24
59.0711	24
62.0569	24
67.0732	24
69.0876	24
70.0508	24
72.1068	25
72.4404	25
72.66	25
72.8433	26
73.0685	26
74.0343	27
81.0679	27
83.0589	27
85.0952	28
85.2565	28
85.6751	28
86.108	29
87.0973	29
90.4669	32
91.0728	33
91.341	33
91.4396	34
94.0585	35
95.0784	35
96.0785	36
97.0613	36
97.4682	36
98.0681	38
98.2421	40
98.3582	40
98.4723	42
99.0846	44
100.0625	45
103.1123	46
104.0719	57
112.081	61
113.0813	66
114.0891	98
116.0688	104
116.4086	113
116.5218	120
118.0561	129
120.098	155
124.1161	172
124.3525	173
124.4595	215
130.0859	220
131.0846	223
132.1004	238
138.0784	242
138.9113	243
142.1179	263
142.3605	286
143.0931	302
148.0997	312
154.098	394
156.118	410
157.0898	462
160.1212	496
164.3256	539
166.1157	540
172.0963	545
174.1436	577
184.4023	683
184.9356	767
185.0954	786
201.3271	867
202.5172	872
203.1554	994
203.545	999
203.6595	22
220.7686	22
221.8341	23
