Mass spectrum: Taxifolin; LC-ESI-QTOF; MS2; CE: 7-62eV;  [M-H]-
Name: Taxifolin
Class: Phenolics
Formula: C15H12O7
Exact mass: 304.0583
SMILES: C1=CC(=C(C=C1C2C(C(=O)C3=C(C=C(C=C3O2)O)O)O)O)O
InChI: InChI=1S/C15H12O7/c16-7-4-10(19)12-11(5-7)22-15(14(21)13(12)20)6-1-2-8(17)9(18)3-6/h1-5,14-19,21H
Instrument: Bruker MicrOTOF-Q
Instrument type: LC-ESI-QTOF
Ms type: MS2
Ion mode: NEGATIVE
Ionization: ESI
Collision energy: 7-62eV
Column name: Acquity CSHC18
Retention time: 32.800 min
Base peak: 303.0516
Precursor m/z: 303.0516
Precursor type: [M-H]-
Precursor intensity: 53718.19
m/z	relative intensity
93.0296	11
95.0069	11
96.0236	11
105.0365	11
107.0154	11
108.025	12
109.0327	12
110.0152	13
111.0121	13
115.0615	14
117.0294	14
119.052	14
121.0326	14
122.043	15
123.0366	15
124.0306	15
125.0322	15
126.0307	15
127.0331	15
129.0355	15
130.0426	16
131.0499	16
132.0211	16
133.0434	17
134.0329	17
135.0297	17
136.0192	18
137.0308	19
138.035	20
139.0337	20
141.0282	20
143.0541	21
145.0448	21
146.0396	21
147.0493	21
148.0316	21
149.0404	22
150.037	23
151.0254	24
152.0208	25
153.0235	25
154.0255	26
155.0387	26
157.0456	26
158.0344	27
159.0487	28
160.0421	29
161.0467	29
163.0207	29
164.0468	29
165.0394	30
166.035	31
167.0418	31
169.0191	33
170.0349	35
171.0496	35
172.0548	36
173.0462	36
174.0406	37
175.0503	38
176.0335	38
177.0279	38
178.0209	38
179.004	39
180.011	42
181.0165	43
182.0206	45
183.0446	45
184.05	47
185.0625	49
187.061	53
188.0556	53
189.0572	58
190.0614	58
191.0464	59
193.0549	63
194.052	65
196.054	65
197.0633	68
198.0394	72
199.0493	74
200.0483	75
201.0319	80
202.0223	81
203.0649	83
211.0458	87
212.0467	88
213.0685	89
214.0603	91
215.0451	91
216.0461	95
217.0682	106
218.0552	108
219.035	110
220.0359	118
229.0502	120
230.0592	147
231.0705	148
235.0646	155
240.0453	159
241.0536	163
242.0443	164
243.0321	174
257.0466	184
259.064	274
260.0654	287
275.0817	296
276.0609	301
285.0589	302
286.0664	344
287.0435	378
303.0626	999
