Mass spectrum: Sucrose; LC-ESI-QTOF; MS2; CE: 10;  [M-H]-
Name: Sucrose
Class: NA
Formula: C12H22O11
Exact mass: 342.11621
SMILES: C(C1C(C(C(C(O1)OC2(C(C(C(O2)CO)O)O)CO)O)O)O)O
InChI: InChI=1S/C12H22O11/c13-1-4-6(16)8(18)9(19)11(21-4)23-12(3-15)10(20)7(17)5(2-14)22-12/h4-11,13-20H,1-3H2
Instrument: impact II
Instrument type: LC-ESI-QTOF
Ms type: MS2
Ion mode: NEGATIVE
Ionization: ESI
Collision energy: 10
Column name: Acquity CSHC18
Retention time: 1.844 min
Base peak: 341.10890
Precursor m/z: 341.10890
Precursor type: [M-H]-
m/z	relative intensity
89.0246	264
113.0244	118
119.0349	376
161.0456	165
179.056	686
341.1089	999
342.1124	213
