Mass spectrum: ADENINE; LC-ESI-QTOF; MS2; CE: 40;  [M-H]-
Name: ADENINE
Class: NA
Formula: C5H5N5
Exact mass: 135.05450
SMILES: NC1=C2NC=NC2=NC=N1
InChI: InChI=1S/C5H5N5/c6-4-3-5(9-1-7-3)10-2-8-4/h1-2H,(H3,6,7,8,9,10)
Instrument: Agilent 6530Â Q-TOF LC/MS
Instrument type: LC-ESI-QTOF
Ms type: MS2
Ion mode: NEGATIVE
Ionization: ESI
Collision energy: 40
Column name: NA
Retention time: 0.200 min
Base peak: 134.04686
Precursor m/z: 134.04686
Precursor type: [M-H]-
Precursor intensity: 169
m/z	relative intensity
41.023	106
57.9738	110
64.0228	142
65.027	207
66.0133	247
68.0249	367
90.0213	708
92.0319	871
107.0393	999
