Mass spectrum: 15-keto Fluprostenol isopropyl ester; ESI-TOF; MS2; CE: 6.0000000;  [M+H]+
Name: 15-keto Fluprostenol isopropyl ester
Class: NA
Formula: C26H33F3O6
Exact mass: 498.22292
SMILES: CC(C)OC(=O)CCCC=CCC1C(CC(C1C=CC(=O)COC2=CC=CC(=C2)C(F)(F)F)O)O
InChI: InChI=1S/C26H33F3O6/c1-17(2)35-25(33)11-6-4-3-5-10-21-22(24(32)15-23(21)31)13-12-19(30)16-34-20-9-7-8-18(14-20)26(27,28)29/h3,5,7-9,12-14,17,21-24,31-32H,4,6,10-11,15-16H2,1-2H3
Instrument: waters xevo g2 TOF
Instrument type: ESI-TOF
Ms type: MS2
Ion mode: POSITIVE
Ionization: ESI
Collision energy: 6.0000000
Column name: Acquity CSHC18
Retention time: 4.472 min
Base peak: 499.23092
Precursor m/z: 499.23092
Precursor type: [M+H]+
m/z	relative intensity
121.0289	29
131.0764	3
149.0239	15
181.1012	6
185.0978	18
187.1119	19
199.1119	31
201.1273	21
205.1195	14
213.1276	19
218.06	379
218.5607	71
223.1126	39
231.1356	6
234.0717	31
238.5683	13
239.0812	124
241.1229	213
242.1266	29
245.1517	96
249.5863	15
259.1334	221
260.1358	28
261.1448	10
265.1824	34
275.1667	35
277.143	244
283.1675	56
284.1716	10
295.1556	26
301.1799	383
302.1799	52
319.1889	999
320.1925	168
321.1932	19
335.1233	6
337.1516	18
338.1951	6
377.1311	15
385.1432	7
395.1475	14
403.1513	154
404.156	36
421.1627	359
422.1666	81
423.165	13
439.1725	300
440.1759	58
446.196	8
455.2056	31
457.1847	24
462.1108	49
463.2116	178
464.2085	45
480.1204	63
481.1747	241
482.2225	142
483.2269	20
497.1717	9
499.2301	375
500.2333	97
