Mass spectrum: 8-Epi-Xanthatine-Glutathione; LC-ESI-ITFT; MS2; CE: 50eV;  [M+H]+
Name: 8-Epi-Xanthatine-Glutathione
Class: Sesquiterpenelactone; Xanthanolide
Formula: C25H35N3O9S
Exact mass: 553.2094
SMILES: O=C(O)[C@@H](N)CCC(=O)N[C@@H](CSCC1C(=O)O[C@@H]2CC(C)C(=CC[C@H]12)/C=C/C(C)=O)C(=O)NCC(=O)O
InChI: InChI=1S/C25H35N3O9S/c1-13-9-20-16(6-5-15(13)4-3-14(2)29)17(25(36)37-20)11-38-12-19(23(33)27-10-22(31)32)28-21(30)8-7-18(26)24(34)35/h3-5,13,16-20H,6-12,26H2,1-2H3,(H,27,33)(H,28,30)(H,31,32)(H,34,35)/b4-3+/t13?,16-,17?,18+,19+,20-/m1/s1
Instrument: Q Exactive Plus, ThermoFisher Scientific
Instrument type: LC-ESI-ITFT
Ms type: MS2
Ion mode: POSITIVE
Ionization: ESI
Collision energy: 50eV
Column name: Acquity CSHC18
Retention time: 5.227 min
Base peak: 554.2148
Precursor m/z: 554.2148
Precursor type: [M+H]+
Precursor intensity: 546749400
m/z	relative intensity
68.601	53
85.0383	61
95.0677	68
121.0829	72
133.0824	98
142.0546	102
145.0806	119
149.0688	140
151.0661	163
159.0977	178
163.0655	188
168.0699	216
171.0974	239
173.1144	259
175.0849	289
177.1001	292
181.0799	306
185.1136	351
187.0801	362
189.0816	371
191.07	384
199.0921	462
201.0988	499
217.1132	897
233.078	999
