Mass spectrum: AMINOADIPATE; LC-ESI-QFT; MS2; CE: 30eV;  [M-H]-
Name: AMINOADIPATE
Class: NA
Formula: C6H11NO4
Exact mass: 161.06881
SMILES: NC(CCCC(O)=O)C(O)=O
InChI: InChI=1S/C6H11NO4/c7-4(6(10)11)2-1-3-5(8)9/h4H,1-3,7H2,(H,8,9)(H,10,11)
Instrument: Q-Exactive Orbitrap, Thermo Scientfic; Ultimate 3000 HPLC, Thermo Scientfic
Instrument type: LC-ESI-QFT
Ms type: MS2
Ion mode: NEGATIVE
Ionization: ESI
Collision energy: 30eV
Column name: Acquity CSHC18
Retention time: 14.698 min
Base peak: 160.0615
Precursor m/z: 160.0615
Precursor type: [M-H]-
Precursor intensity: 131
m/z	relative intensity
55.3899	25
64.0051	38
65.0129	649
65.9969	496
66.0081	999
66.1341	35
67.0286	31
68.0238	43
77.0128	176
77.2642	27
84.0633	26
89.0128	195
90.0079	412
90.0162	63
91.0285	258
91.264	36
92.0125	33
92.0236	358
93.0075	30
93.0189	125
94.0393	36
95.8237	29
99.9241	43
103.0158	35
105.0077	132
105.0315	46
106.0154	54
106.0275	30
106.0394	163
107.0233	172
107.0344	52
108.8565	36
114.9836	35
116.0235	289
117.0189	223
117.0274	55
118.0034	38
118.0145	117
118.0393	251
119.0233	331
119.0346	418
120.0188	207
120.031	61
120.0426	131
121.0266	167
125.657	32
130.0394	42
131.035	64
132.0191	139
132.0308	39
132.0553	140
133.0028	119
133.0142	168
133.0262	184
133.0391	434
133.0503	632
134.0343	558
134.0456	216
142.0399	32
143.035	211
146.0219	40
146.034	31
159.0301	175
160.014	416
160.0252	488
160.0373	253
160.0443	61
160.0502	418
160.0614	722
160.0688	88
161.009	124
161.0208	142
161.0344	146
161.0454	640
161.0568	446
161.0638	47
161.0822	158
161.8135	34
