Mass spectrum: CYTIDINE MONOPHOSPHATE; LC-ESI-QTOF; MS2; CE: 10;  [M+H]+
Name: CYTIDINE MONOPHOSPHATE
Class: NA
Formula: C9H14N3O8P
Exact mass: 323.0519
SMILES: NC1=NC(=O)N(C=C1)[C@@H]1O[C@H](COP(O)(O)=O)[C@@H](O)[C@H]1O
InChI: InChI=1S/C9H14N3O8P/c10-5-1-2-12(9(15)11-5)8-7(14)6(13)4(20-8)3-19-21(16,17)18/h1-2,4,6-8,13-14H,3H2,(H2,10,11,15)(H2,16,17,18)/t4-,6-,7-,8-/m1/s1
Instrument: Agilent 6530Â Q-TOF LC/MS
Instrument type: LC-ESI-QTOF
Ms type: MS2
Ion mode: POSITIVE
Ionization: ESI
Collision energy: 10
Column name: NA
Retention time: 0.200 min
Base peak: 324.05871
Precursor m/z: 324.05871
Precursor type: [M+H]+
Precursor intensity: 46.5
m/z	relative intensity
95.0215	197
112.0474	202
115.0702	999
