Mass spectrum: Trimethylamine N-oxide; LC-ESI-ITFT; MS2; CE: 40;  [M+H]+
Name: Trimethylamine N-oxide
Class: Organic nitrogen compounds; Organonitrogen compounds; Aminoxides
Formula: C3H9NO
Exact mass: 75.06841
SMILES: C[N+](C)(C)[O-]
InChI: InChI=1S/C3H9NO/c1-4(2,3)5/h1-3H3
Instrument: Thermo Scientific Q-Exactive Focus
Instrument type: LC-ESI-ITFT
Ms type: MS2
Ion mode: POSITIVE
Ionization: ESI
Collision energy: 40
Column name: Acquity CSHC18
Retention time: 1.463 min
Base peak: 76.07569
Precursor m/z: 76.07569
Precursor type: [M+H]+
m/z	relative intensity
51.4723	10
56.05	55
58.0656	999
60.0449	110
61.9998	10
70.8171	11
74.591	10
77.685	10
80.2501	10
83.2438	9
