Mass spectrum: Formononetin; LC-ESI-ITFT; MS2; CE: 60;  [M-H]-
Name: Formononetin
Class: Phenylpropanoids and polyketides; Isoflavonoids; O-methylated isoflavonoids
Formula: C16H12O4
Exact mass: 268.07356
SMILES: COC1=CC=C(C=C1)C1=COC2=C(C=CC(O)=C2)C1=O
InChI: InChI=1S/C16H12O4/c1-19-12-5-2-10(3-6-12)14-9-20-15-8-11(17)4-7-13(15)16(14)18/h2-9,17H,1H3
Instrument: Thermo Scientific Q-Exactive Focus
Instrument type: LC-ESI-ITFT
Ms type: MS2
Ion mode: NEGATIVE
Ionization: ESI
Collision energy: 60
Column name: Acquity CSHC18
Retention time: 1.731 min
Base peak: 267.06628
Precursor m/z: 267.06628
Precursor type: [M-H]-
m/z	relative intensity
65.002	152
91.0177	977
92.5153	34
117.0333	33
132.0205	134
135.0076	45
167.0492	710
195.0443	999
223.0395	196
251.0348	30
