Mass spectrum: ADENINE; LC-ESI-QTOF; MS2; CE: 40;  [M+H]+
Name: ADENINE
Class: NA
Formula: C5H5N5
Exact mass: 135.0545
SMILES: NC1=C2NC=NC2=NC=N1
InChI: InChI=1S/C5H5N5/c6-4-3-5(9-1-7-3)10-2-8-4/h1-2H,(H3,6,7,8,9,10)
Instrument: Agilent 6530Â Q-TOF LC/MS
Instrument type: LC-ESI-QTOF
Ms type: MS2
Ion mode: POSITIVE
Ionization: ESI
Collision energy: 40
Column name: NA
Retention time: 0.200 min
Base peak: 136.06288
Precursor m/z: 136.06288
Precursor type: [M+H]+
Precursor intensity: 153.5
m/z	relative intensity
40.0189	35
43.0295	52
53.0145	60
55.0292	87
65.0138	153
67.0289	236
77.0134	246
92.0242	334
94.0395	527
119.0338	999
