Mass spectrum: Costunolide-Cysteine; LC-ESI-ITFT; MS2; CE: 50eV;  [M+H]+
Name: Costunolide-Cysteine
Class: Sesquiterpenelactone; Germacrolide
Formula: C18H27NO4S
Exact mass: 353.1661
SMILES: O=C(O)[C@@H](N)CSCC1C(=O)O[C@@H]2C=C(C)CCC=C(C)CC[C@@H]12
InChI: InChI=1S/C18H27NO4S/c1-11-4-3-5-12(2)8-16-13(7-6-11)14(18(22)23-16)9-24-10-15(19)17(20)21/h4,8,13-16H,3,5-7,9-10,19H2,1-2H3,(H,20,21)/t13-,14?,15-,16+/m0/s1
Instrument: Q Exactive Plus, ThermoFisher Scientific
Instrument type: LC-ESI-ITFT
Ms type: MS2
Ion mode: POSITIVE
Ionization: ESI
Collision energy: 50eV
Column name: Acquity CSHC18
Retention time: 6.670 min
Base peak: 354.1728
Precursor m/z: 354.1728
Precursor type: [M+H]+
Precursor intensity: 9213785000
m/z	relative intensity
55.0371	51
88.0312	54
135.0992	63
151.0667	74
159.0991	125
163.0662	129
165.0815	578
173.1145	999
