Mass spectrum: Hippuric acid; LC-ESI-ITFT; MS2; CE: 40;  [M+H]+
Name: Hippuric acid
Class: Benzenoids; Benzene and substituted derivatives; Benzoic acids and derivatives
Formula: C9H9NO3
Exact mass: 179.05824
SMILES: OC(=O)CNC(=O)C1=CC=CC=C1
InChI: InChI=1S/C9H9NO3/c11-8(12)6-10-9(13)7-4-2-1-3-5-7/h1-5H,6H2,(H,10,13)(H,11,12)
Instrument: Thermo Scientific Q-Exactive Focus
Instrument type: LC-ESI-ITFT
Ms type: MS2
Ion mode: POSITIVE
Ionization: ESI
Collision energy: 40
Column name: Acquity CSHC18
Retention time: 1.224 min
Base peak: 180.06552
Precursor m/z: 180.06552
Precursor type: [M+H]+
m/z	relative intensity
50.0157	28
51.0235	150
53.0391	430
55.0183	26
56.9653	175
77.0389	177
81.0338	36
95.0493	999
105.0336	165
105.0448	224
