Mass spectrum: CYSTINE; LC-ESI-QFT; MS2; CE: 30eV;  [M+H]+
Name: CYSTINE
Class: NA
Formula: C6H12N2O4S2
Exact mass: 240.02385
SMILES: N[C@@H](CSSC[C@H](N)C(O)=O)C(O)=O
InChI: InChI=1S/C6H12N2O4S2/c7-3(5(9)10)1-13-14-2-4(8)6(11)12/h3-4H,1-2,7-8H2,(H,9,10)(H,11,12)/t3-,4-/m0/s1
Instrument: Q-Exactive Orbitrap, Thermo Scientfic; Ultimate 3000 HPLC, Thermo Scientfic
Instrument type: LC-ESI-QFT
Ms type: MS2
Ion mode: POSITIVE
Ionization: ESI
Collision energy: 30eV
Column name: Acquity CSHC18
Retention time: 0.554 min
Base peak: 241.0311
Precursor m/z: 241.0311
Precursor type: [M+H]+
Precursor intensity: 200
m/z	relative intensity
51.8428	1
55.0186	1
58.9957	1
65.3139	1
66.8796	1
70.803	1
73.029	8
74.0066	79
74.0243	358
76.0222	8
76.0547	1
78.0378	2
79.3667	1
85.3039	1
88.0399	24
90.0555	5
92.017	9
102.9851	3
105.0009	6
105.9783	1
107.9941	5
111.5159	1
120.0117	999
121.0151	15
122.0273	620
123.0267	1
123.0307	6
135.2425	1
136.9728	19
137.038	6
140.3618	1
152.9875	17
153.9992	98
161.4515	1
163.9834	1
164.2566	1
177.9993	64
182.9376	2
195.0259	114
196.0092	1
196.0291	2
205.9942	10
212.1554	1
213.9567	1
215.9362	1
217.2237	1
217.9532	1
219.0606	1
224.0046	13
226.5633	1
241.0312	195
242.0338	7
