Mass spectrum: Histamine; LC-ESI-ITFT; MS2; CE: 60;  [M+H]+
Name: Histamine
Class: Organic nitrogen compounds; Organonitrogen compounds; Amines
Formula: C5H9N3
Exact mass: 111.07965
SMILES: NCCC1=CNC=N1
InChI: InChI=1S/C5H9N3/c6-2-1-5-3-7-4-8-5/h3-4H,1-2,6H2,(H,7,8)
Instrument: Thermo Scientific Q-Exactive Focus
Instrument type: LC-ESI-ITFT
Ms type: MS2
Ion mode: POSITIVE
Ionization: ESI
Collision energy: 60
Column name: Acquity CSHC18
Retention time: 2.014 min
Base peak: 112.08692
Precursor m/z: 112.08692
Precursor type: [M+H]+
m/z	relative intensity
53.0027	270
54.0344	999
61.1327	35
81.0451	374
83.602	36
93.0336	39
109.0846	39
111.9685	35
121.0967	35
125.8246	36
