Mass spectrum: Eupaserrin; LC-ESI-ITFT; MS2; CE: 50eV;  [M+H]+
Name: Eupaserrin
Class: Sesquiterpenelactone; Germacrolide
Formula: C22H28O7
Exact mass: 404.1835
SMILES: C/C=C(\COC(=O)C)/C(=O)OC1C/C(=C\C(C/C(=C\C2C1C(=C)C(=O)O2)/C)O)/C
InChI: InChI=1S/C22H28O7/c1-6-16(11-27-15(5)23)22(26)29-19-10-13(3)8-17(24)7-12(2)9-18-20(19)14(4)21(25)28-18/h6,8-9,17-20,24H,4,7,10-11H2,1-3,5H3/b12-9-,13-8-,16-6+
Instrument: Q Exactive Plus, ThermoFisher Scientific
Instrument type: LC-ESI-ITFT
Ms type: MS2
Ion mode: POSITIVE
Ionization: ESI
Collision energy: 50eV
Column name: Acquity CSHC18
Retention time: 6.383 min
Base peak: 405.1901
Precursor m/z: 405.1901
Precursor type: [M+H]+
Precursor intensity: 105217500
m/z	relative intensity
53.0392	10
70.4477	12
75.9037	8
81.034	108
85.0651	136
95.0501	244
97.065	10
99.0448	84
105.07	16
117.0707	62
119.0857	12
121.0648	10
131.0856	11
135.0806	8
139.5482	8
141.0552	391
143.0853	268
145.0648	52
147.7359	8
151.0751	11
155.0859	11
157.1022	142
159.0644	89
159.0796	16
163.0754	232
167.0843	9
171.1174	52
173.0594	40
173.1326	71
177.0907	11
181.1003	49
183.1166	790
185.133	33
187.0762	49
189.092	10
191.0711	114
193.1006	100
199.1112	9
201.0897	12
201.1275	145
203.1061	18
211.113	999
212.1143	14
216.3611	7
219.1373	74
229.1208	767
247.1332	279
310.3562	10
405.1928	63
