Mass spectrum: Cysteamine; LC-ESI-ITFT; MS2; CE: 10;  [M+H]+
Name: Cysteamine
Class: Organosulfur compounds; Thiols; Alkylthiols
Formula: C2H7NS
Exact mass: 77.02992
SMILES: NCCS
InChI: InChI=1S/C2H7NS/c3-1-2-4/h4H,1-3H2
Instrument: Thermo Scientific Q-Exactive Focus
Instrument type: LC-ESI-ITFT
Ms type: MS2
Ion mode: POSITIVE
Ionization: ESI
Collision energy: 10
Column name: Acquity CSHC18
Retention time: 0.348 min
Base peak: 78.03720
Precursor m/z: 78.03720
Precursor type: [M+H]+
m/z	relative intensity
60.9164	1
61.0112	999
78.0376	8
