Mass spectrum: lanostenol; ESI-TOF; MS2; CE: 0.6458333;  [M+H]+
Name: lanostenol
Class: NA
Formula: C30H52O
Exact mass: 428.40182
SMILES: [H]OC2([H])(C([H])([H])C([H])([H])C1(C3=C(C([H])([H])C([H])([H])C1([H])C2(C([H])([H])[H])(C([H])([H])[H]))C4(C([H])([H])[H])(C([H])([H])C([H])([H])C([H])(C([H])(C([H])([H])[H])C([H])([H])C([H])([H])C([H])([H])C([H])(C([H])([H])[H])C([H])([H])[H])C4(C([H])([H])[H])(C([H])([H])C3([H])([H]))))(C([H])([H])[H]))
InChI: InChI=1S/C30H52O/c1-20(2)10-9-11-21(3)22-14-18-30(8)24-12-13-25-27(4,5)26(31)16-17-28(25,6)23(24)15-19-29(22,30)7/h20-22,25-26,31H,9-19H2,1-8H3
Instrument: waters xevo g2 TOF
Instrument type: ESI-TOF
Ms type: MS2
Ion mode: POSITIVE
Ionization: ESI
Collision energy: 0.6458333
Column name: Acquity CSHC18
Retention time: 11.533 min
Base peak: 429.40982
Precursor m/z: 429.40982
Precursor type: [M+H]+
m/z	relative intensity
55.0198	43
81.071	157
83.0865	55
95.0867	411
97.1027	116
107.0865	92
109.1023	329
111.1176	85
121.1023	187
123.1173	239
133.1023	72
135.1176	205
137.1328	92
147.1178	109
149.133	208
151.1487	55
159.117	35
161.1323	135
175.1477	61
189.1627	71
191.1799	313
192.184	44
193.1938	43
203.1811	223
205.1956	141
207.2111	44
215.1804	35
217.1959	156
218.1976	35
218.9862	46
229.1957	40
231.2115	32
233.2268	38
243.2119	48
257.2277	67
259.2424	50
265.0192	40
273.2588	31
282.053	135
283.0536	76
299.2725	76
313.2895	40
319.1955	38
326.9664	63
331.1134	44
351.1291	49
371.7661	64
387.1708	76
395.3669	57
401.1439	272
411.3988	999
412.4022	329
413.3913	236
415.0345	58
428.4018	149
429.4041	36
