Mass spectrum: Feruloylmalate(4-O-8)Coniferyl alcohol-2; LC-ESI-QTOF; MS2; CE: 50eV;  [M-H]-
Name: Feruloylmalate(4-O-8)Coniferyl alcohol-2
Class: Phenylpropanoid
Formula: C24H26O12
Exact mass: 506.1424
SMILES: OC1=C(OC)C=C(C(O)C(OC2=C(OC)C=C(/C=C/C(OC(CC(O)=O)C(O)=O)=O)C=C2)CO)C=C1
InChI: InChI=1S/C24H26O12/c1-33-17-10-14(5-6-15(17)26)23(30)20(12-25)35-16-7-3-13(9-18(16)34-2)4-8-22(29)36-19(24(31)32)11-21(27)28/h3-10,19-20,23,25-26,30H,11-12H2,1-2H3,(H,27,28)(H,31,32)/b8-4+
Instrument: TIMS-TOF Pro, Bruker Daltonik; Elute UHPLC System, Bruker Daltonik
Instrument type: LC-ESI-QTOF
Ms type: MS2
Ion mode: NEGATIVE
Ionization: ESI
Collision energy: 50eV
Column name: Acquity CSHC18
Retention time: 5.823 min
Base peak: 505.1372
Precursor m/z: 505.1372
Precursor type: [M-H]-
Precursor intensity: 2628.22
m/z	relative intensity
71.013	28
116.9301	24
134.0352	35
149.0233	20
150.0317	54
151.0396	68
178.0254	52
179.0345	20
194.0503	23
341.1024	107
389.1255	999
390.1307	91
