Mass spectrum: LACTOSE; LC-ESI-QFT; MS2; CE: 30eV;  [M-H]-
Name: LACTOSE
Class: NA
Formula: C12H22O11
Exact mass: 342.11621
SMILES: OC[C@H]1O[C@@H](O[C@H]2[C@H](O)[C@@H](O)[C@@H](O)O[C@@H]2CO)[C@H](O)[C@@H](O)[C@H]1O
InChI: InChI=1S/C12H22O11/c13-1-3-5(15)6(16)9(19)12(22-3)23-10-4(2-14)21-11(20)8(18)7(10)17/h3-20H,1-2H2/t3-,4-,5+,6+,7-,8-,9-,10-,11+,12+/m1/s1
Instrument: Q-Exactive Orbitrap, Thermo Scientfic; Ultimate 3000 HPLC, Thermo Scientfic
Instrument type: LC-ESI-QFT
Ms type: MS2
Ion mode: NEGATIVE
Ionization: ESI
Collision energy: 30eV
Column name: Acquity CSHC18
Retention time: 0.592 min
Base peak: 341.1089
Precursor m/z: 341.1089
Precursor type: [M-H]-
Precursor intensity: 137
m/z	relative intensity
52.944	19
52.9495	20
53.3156	20
57.439	19
58.378	18
59.0123	563
60.7208	21
62.5233	22
63.2281	22
67.6568	24
71.0123	562
72.9916	62
73.028	769
75.7682	25
79.6577	22
81.0331	54
83.0123	130
85.0279	35
86.7493	28
87.0072	45
89.0229	650
94.1346	27
97.028	615
101.0229	999
102.0263	29
102.9324	24
102.9473	56
108.8266	24
110.8724	23
113.0229	378
115.0386	106
117.4381	23
119.0336	30
122.5714	23
123.0935	21
125.023	56
130.2316	23
131.0335	31
132.2212	26
133.013	39
143.0338	48
144.8867	25
146.9374	162
150.931	32
161.0444	116
171.9456	107
179.0553	45
193.0345	121
195.8602	27
196.1717	24
209.3651	26
224.8604	232
248.1971	28
268.851	288
269.9031	52
305.8542	25
314.829	26
