Mass spectrum: Theobromine; LC-ESI-ITFT; MS2; CE: 35eV;  [M+H]+
Name: Theobromine
Class: Alkaloïd
Formula: C7H8N4O2
Exact mass: 180.0647
SMILES: CN1C=NC2=C1C(=O)NC(=O)N2C
InChI: InChI=1S/C7H8N4O2/c1-10-3-8-5-4(10)6(12)9-7(13)11(5)2/h3H,1-2H3,(H,9,12,13)
Instrument: LTQ Orbitrap XL, Thermo Scientfic; Dionex Ultimate 300
Instrument type: LC-ESI-ITFT
Ms type: MS2
Ion mode: POSITIVE
Ionization: ESI
Collision energy: 35eV
Column name: Alltima C18 150*2.1 5µm, GRACE ALLTECH
Retention time: 19.572 min
Base peak: 181.0717
Precursor m/z: 181.0717
Precursor type: [M+H]+
m/z	relative intensity
95.9081	3
107.9432	11
109.9818	11
135.0145	55
137.0218	89
138.0497	170
180.9888	999
