Mass spectrum: Argininosuccinic acid; ESI-TOF; MS2; CE: 6.0000000;  [M+H]+
Name: Argininosuccinic acid
Class: NA
Formula: C10H18N4O6
Exact mass: 290.12263
SMILES: NC(CCCNC(=N)NC(CC(O)=O)C(O)=O)C(O)=O
InChI: InChI=1S/C10H18N4O6/c11-5(8(17)18)2-1-3-13-10(12)14-6(9(19)20)4-7(15)16/h5-6H,1-4,11H2,(H,15,16)(H,17,18)(H,19,20)(H3,12,13,14)
Instrument: waters xevo g2 TOF
Instrument type: ESI-TOF
Ms type: MS2
Ion mode: POSITIVE
Ionization: ESI
Collision energy: 6.0000000
Column name: Acquity CSHC18
Retention time: 0.522 min
Base peak: 291.13063
Precursor m/z: 291.13063
Precursor type: [M+H]+
m/z	relative intensity
70.0664	2
96.9502	16
98.9627	1
101.9409	2
112.0877	5
113.0719	1
115.0873	5
116.0715	14
117.9807	1
123.0666	3
124.9565	1
133.0977	14
133.9871	2
141.9594	108
145.0181	2
158.0567	17
159.0772	8
160.9894	2
164.0826	2
167.0934	5
175.1202	1
176.0671	16
183.0774	4
184.9858	6
196.0679	2
201.0078	1
210.0875	4
228.0981	15
229.1018	1
246.109	8
256.0939	6
258.1709	1
258.8855	1
273.1198	78
274.1121	6
291.1304	999
292.133	128
