Mass spectrum: N-Oleoylethanolamine; LC-ESI-ITFT; MS2; CE: 40;  [M+H]+
Name: N-Oleoylethanolamine
Class: Organic nitrogen compounds; Organonitrogen compounds; Amines
Formula: C20H39NO2
Exact mass: 325.29808
SMILES: CCCCCCCC\C=C/CCCCCCCC(=O)NCCO
InChI: InChI=1S/C20H39NO2/c1-2-3-4-5-6-7-8-9-10-11-12-13-14-15-16-17-20(23)21-18-19-22/h9-10,22H,2-8,11-19H2,1H3,(H,21,23)/b10-9-
Instrument: Thermo Scientific Q-Exactive Focus
Instrument type: LC-ESI-ITFT
Ms type: MS2
Ion mode: POSITIVE
Ionization: ESI
Collision energy: 40
Column name: Acquity CSHC18
Retention time: 1.463 min
Base peak: 326.30536
Precursor m/z: 326.30536
Precursor type: [M+H]+
m/z	relative intensity
55.0548	387
57.0704	80
62.0605	999
67.0546	191
69.0703	339
79.0546	102
81.0702	157
83.0859	118
93.0701	112
95.0858	142
