Mass spectrum: Fraxin; LC-ESI-QTOF; MS2; CE: 20.18;  [M-H]-
Name: Fraxin
Class: NA
Formula: C16H18O10
Exact mass: 370.0900
SMILES: COC1=C(C(=C2C(=C1)C=CC(=O)O2)OC3C(C(C(C(O3)CO)O)O)O)O
InChI: InChI=1S/C16H18O10/c1-23-7-4-6-2-3-9(18)25-14(6)15(11(7)20)26-16-13(22)12(21)10(19)8(5-17)24-16/h2-4,8,10,12-13,16-17,19-22H,5H2,1H3
Instrument: Bruker MicrOTOF-Q
Instrument type: LC-ESI-QTOF
Ms type: MS2
Ion mode: NEGATIVE
Ionization: ESI
Collision energy: 20.18
Column name: Acquity CSHC18
Retention time: NA
Base peak: 369.0827
Precursor m/z: 369.0827
Precursor type: [M-H]-
m/z	relative intensity
47.7931	8
48.8013	10
53.8906	11
61.078	8
61.5297	12
64.9986	10
70.7036	8
71.4046	9
76.1412	8
76.7105	8
77.469	9
78.8402	9
79.7748	8
80.3693	8
82.3011	8
83.6503	9
84.3946	9
84.9611	10
86.9723	8
87.522	9
88.2787	10
89.0473	9
93.7285	8
94.1721	12
94.9585	10
96.1768	8
97.4737	12
98.2168	9
99.0972	8
100.1959	8
102.202	12
104.8115	8
106.8947	10
107.5468	9
108.1956	11
108.8809	9
115.4375	8
116.123	8
117.425	8
118.3604	9
119.8695	8
120.7034	8
121.6384	9
122.0417	8
123.1211	10
126.5184	8
127.0705	10
127.7548	8
129.8302	10
130.562	8
131.0983	8
132.9312	8
133.5799	12
135.0085	43
135.5658	8
136.4255	8
137.4066	8
137.8152	13
138.3628	9
138.9819	9
139.8742	11
142.674	9
147.0102	10
149.449	8
150.2394	22
150.994	16
151.7266	8
153.5247	9
154.8052	9
155.8255	10
157.405	9
157.9675	8
158.4214	10
160.5184	11
162.1859	11
163.0035	119
163.4518	10
164.0086	38
165.4916	14
167.3786	10
168.7369	10
171.8475	11
174.8629	23
176.9555	13
178.1625	21
179.0321	15
181.103	8
182.2261	10
184.1981	9
185.3198	9
185.806	9
187.0415	13
187.8467	8
192.4834	631
197.0073	11
198.7564	8
203.0354	13
204.0244	16
207.6233	999
211.1606	10
217.012	8
218.0236	12
219.0251	45
220.0306	22
221.0429	25
234.0168	33
235.0295	32
236.0314	10
247.02	12
249.0381	67
291.0511	11
310.0699	24
337.055	24
353.8978	353
355.0615	228
356.064	34
368.9022	697
370.1601	146
371.0853	46
