Mass spectrum: Picolinic acid; LC-ESI-ITFT; MS2; CE: 100;  [M+H]+
Name: Picolinic acid
Class: Organoheterocyclic compounds; Pyridines and derivatives; Pyridinecarboxylic acids and derivatives
Formula: C6H5NO2
Exact mass: 123.03203
SMILES: OC(=O)C1=CC=CC=N1
InChI: InChI=1S/C6H5NO2/c8-6(9)5-3-1-2-4-7-5/h1-4H,(H,8,9)
Instrument: Thermo Scientific Q-Exactive Focus
Instrument type: LC-ESI-ITFT
Ms type: MS2
Ion mode: POSITIVE
Ionization: ESI
Collision energy: 100
Column name: Acquity CSHC18
Retention time: 2.126 min
Base peak: 124.03930
Precursor m/z: 124.03930
Precursor type: [M+H]+
m/z	relative intensity
50.0157	999
51.0236	67
52.0188	204
53.0028	232
65.0028	355
66.0106	32
67.5279	12
74.0786	12
88.4091	12
121.8347	12
