Mass spectrum: (20R,22S,25S)-3beta,16alpha-Diacetoxy-22,26-acetimino-5alpha-cholestan-20-ol; APCI-ITFT; MS2; CE: 70 HCD;  [M+H]+
Name: (20R,22S,25S)-3beta,16alpha-Diacetoxy-22,26-acetimino-5alpha-cholestan-20-ol
Class: NA
Formula: C33H53NO6
Exact mass: 559.38729
SMILES: C[C@H](CN1C(C)=O)CC[C@H]1[C@](C)(O)[C@H]2[C@H](OC(C)=O)C[C@@]3([H])[C@]4([H])CC[C@@]5([H])C[C@@H](OC(C)=O)CC[C@]5(C)[C@@]4([H])CC[C@]23C
InChI: InChI=1S/C33H53NO6/c1-19-8-11-29(34(18-19)20(2)35)33(7,38)30-28(40-22(4)37)17-27-25-10-9-23-16-24(39-21(3)36)12-14-31(23,5)26(25)13-15-32(27,30)6/h19,23-30,38H,8-18H2,1-7H3/t19-,23-,24-,25+,26-,27-,28+,29-,30-,31-,32-,33-/m0/s1
Instrument: Orbitrap Elite
Instrument type: APCI-ITFT
Ms type: MS2
Ion mode: POSITIVE
Ionization: APCI
Collision energy: 70 HCD
Column name: Acquity CSHC18
Retention time: 0.078 min
Base peak: 560.39300
Precursor m/z: 560.39300
Precursor type: [M+H]+
Precursor intensity: 4420774
m/z	relative intensity
77.0388	26
79.0543	167
80.0491	19
81.0695	174
82.0651	28
84.0804	23
91.0538	498
93.0694	128
95.0489	25
95.0853	109
96.0805	26
98.0965	999
105.0446	36
105.0694	309
107.085	141
108.0804	57
109.1008	40
110.0968	18
117.0697	43
119.0854	162
121.1014	41
122.0958	70
124.1122	195
126.128	117
129.0694	22
131.086	62
133.1013	78
135.1164	41
136.1118	43
138.1283	33
142.1227	184
143.0855	20
145.1008	91
147.1173	110
150.1285	79
152.1434	26
157.101	21
159.1162	88
161.1318	375
162.1282	28
164.144	156
168.1386	28
173.1331	24
199.1487	26
255.2124	22
380.3302	90
440.3579	20
