Mass spectrum: H-Phe-Leu-OH; LC-ESI-QTOF; MS2; CE: 31.15;  [2M+H]+
Name: H-Phe-Leu-OH
Class: NA
Formula: C15H22N2O3
Exact mass: 278.1630
SMILES: CC(C)CC(C(=O)O)NC(=O)C(CC1=CC=CC=C1)N
InChI: InChI=1S/C15H22N2O3/c1-10(2)8-13(15(19)20)17-14(18)12(16)9-11-6-4-3-5-7-11/h3-7,10,12-13H,8-9,16H2,1-2H3,(H,17,18)(H,19,20)
Instrument: Bruker MicrOTOF-Q
Instrument type: LC-ESI-QTOF
Ms type: MS2
Ion mode: POSITIVE
Ionization: ESI
Collision energy: 31.15
Column name: Acquity CSHC18
Retention time: NA
Base peak: 557.3334
Precursor m/z: 557.3334
Precursor type: [2M+H]+
m/z	relative intensity
130.69	2
166.08	2
206.08	2
215.15	2
216.1	4
220.12	3
233.17	116
234.16	24
235.16	2
261.16	5
262.15	18
263.15	2
278.86	2
279.02	5
279.17	999
279.35	2
279.55	3
279.73	2
280.01	2
280.17	186
280.39	2
280.51	2
281.17	16
282.13	2
547.59	3
