Mass spectrum: Eupatolide-Cysteine; LC-ESI-ITFT; MS2; CE: 50eV;  [M+H]+
Name: Eupatolide-Cysteine
Class: Sesquiterpenelactone; Germacrolide
Formula: C18H27NO5S
Exact mass: 369.1610
SMILES: O=C(O)[C@@H](N)CSCC1[C@@H]2[C@H](O)CC(C)=CCCC(C)=C[C@H]2OC1=O
InChI: InChI=1S/C18H27NO5S/c1-10-4-3-5-11(2)7-15-16(14(20)6-10)12(18(23)24-15)8-25-9-13(19)17(21)22/h4,7,12-16,20H,3,5-6,8-9,19H2,1-2H3,(H,21,22)/t12?,13-,14+,15+,16+/m0/s1
Instrument: Q Exactive Plus, ThermoFisher Scientific
Instrument type: LC-ESI-ITFT
Ms type: MS2
Ion mode: POSITIVE
Ionization: ESI
Collision energy: 50eV
Column name: Acquity CSHC18
Retention time: 5.584 min
Base peak: 370.1668
Precursor m/z: 370.1668
Precursor type: [M+H]+
Precursor intensity: 118072400
m/z	relative intensity
55.0369	20
88.0308	25
95.0676	25
109.0832	33
121.0833	48
122.0479	52
133.0836	55
135.0982	60
137.0772	64
139.0667	69
145.0831	74
147.0984	76
149.0513	82
151.0665	88
157.0834	105
159.0996	112
161.0827	128
163.0663	150
171.0814	159
173.1137	173
175.0982	259
177.1002	338
185.0978	459
187.1293	466
188.1336	740
189.0973	841
203.1249	999
