Mass spectrum: Harmine; LC-ESI-QTOF; MS2; CE: 15.00;  [M+H]+
Name: Harmine
Class: NA
Formula: C13H12N2O
Exact mass: 212.0950
SMILES: CC1=NC=CC2=C1NC3=C2C=CC(=C3)OC
InChI: InChI=1S/C13H12N2O/c1-8-13-11(5-6-14-8)10-4-3-9(16-2)7-12(10)15-13/h3-7,15H,1-2H3
Instrument: Bruker MicrOTOF-Q
Instrument type: LC-ESI-QTOF
Ms type: MS2
Ion mode: POSITIVE
Ionization: ESI
Collision energy: 15.00
Column name: Acquity CSHC18
Retention time: NA
Base peak: 213.1022
Precursor m/z: 213.1022
Precursor type: [M+H]+
m/z	relative intensity
170.0838	75
198.079	119
199.0814	279
213.1061	578
214.1051	999
