Mass spectrum: gamma-Aminobutyric acid; LC-ESI-ITFT; MS2; CE: 30;  [M+H]+
Name: gamma-Aminobutyric acid
Class: Organic acids and derivatives; Carboxylic acids and derivatives; Amino acids, peptides, and analogues
Formula: C4H9NO2
Exact mass: 103.06333
SMILES: NCCCC(O)=O
InChI: InChI=1S/C4H9NO2/c5-3-1-2-4(6)7/h1-3,5H2,(H,6,7)
Instrument: Thermo Scientific Q-Exactive Focus
Instrument type: LC-ESI-ITFT
Ms type: MS2
Ion mode: POSITIVE
Ionization: ESI
Collision energy: 30
Column name: Acquity CSHC18
Retention time: 0.914 min
Base peak: 104.07061
Precursor m/z: 104.07061
Precursor type: [M+H]+
m/z	relative intensity
53.0028	134
53.6247	52
59.0541	57
68.05	97
69.034	999
70.4557	55
87.0444	55
95.5599	57
97.7819	52
112.2352	63
