Mass spectrum: 8ß-angeloyloxy-9ß-hydroxy-guaia-11(13)-en-6(12),4(14)-dienolide; LC-ESI-ITFT; MS2; CE: 50eV;  [M+H]+
Name: 8ß-angeloyloxy-9ß-hydroxy-guaia-11(13)-en-6(12),4(14)-dienolide
Class: Sesquiterpenelactone; Guaianolide
Formula: C20H24O7
Exact mass: 376.1522
SMILES: C\C=C(\C)C(=O)O[C@H]3[C@H]1C(=C)C(=O)O[C@@H]1[C@H]4[C@]2(C)CC[C@H]4[C@@H](C(=O)O2)[C@H]3O
InChI: InChI=1S/C20H24O7/c1-5-8(2)17(22)26-16-11-9(3)18(23)25-15(11)13-10-6-7-20(13,4)27-19(24)12(10)14(16)21/h5,10-16,21H,3,6-7H2,1-2,4H3/b8-5-/t10-,11-,12+,13-,14+,15-,16-,20-/m0/s1
Instrument: Q Exactive Plus, ThermoFisher Scientific
Instrument type: LC-ESI-ITFT
Ms type: MS2
Ion mode: POSITIVE
Ionization: ESI
Collision energy: 50eV
Column name: Acquity CSHC18
Retention time: 6.782 min
Base peak: 377.1586
Precursor m/z: 377.1586
Precursor type: [M+H]+
Precursor intensity: 57817130
m/z	relative intensity
50.8807	4
55.055	123
70.0986	5
83.0502	999
84.0534	4
177.0909	5
179.1065	36
187.1128	6
203.1064	42
205.1226	20
213.0906	17
215.1051	10
221.1165	288
231.1005	31
233.1162	5
241.0858	6
255.1381	6
259.0951	68
277.1062	78
313.181	18
331.1902	5
341.1742	7
345.2081	4
359.151	336
360.1544	15
377.1815	75
377.1954	194
