Mass spectrum: SERINE; LC-ESI-QFT; MS2; CE: 30eV;  [M+H]+
Name: SERINE
Class: NA
Formula: C3H7NO3
Exact mass: 105.04259
SMILES: N[C@@H](CO)C(O)=O
InChI: InChI=1S/C3H7NO3/c4-2(1-5)3(6)7/h2,5H,1,4H2,(H,6,7)/t2-/m0/s1
Instrument: Q-Exactive Orbitrap, Thermo Scientfic; Ultimate 3000 HPLC, Thermo Scientfic
Instrument type: LC-ESI-QFT
Ms type: MS2
Ion mode: POSITIVE
Ionization: ESI
Collision energy: 30eV
Column name: Acquity CSHC18
Retention time: 0.534 min
Base peak: 106.0499
Precursor m/z: 106.0499
Precursor type: [M+H]+
Precursor intensity: 126
m/z	relative intensity
60.0452	999
61.0421	1
61.0485	9
69.0343	1
70.0294	21
70.0375	1
70.9806	1
79.0549	8
87.0639	1
88.0399	149
88.048	14
89.0431	1
89.049	6
91.0548	1
95.0497	2
97.0081	6
105.0038	1
105.0452	1
105.0705	1
106.0376	1
106.0504	62
106.0867	1
107.0014	1
107.0859	1
