Mass spectrum: Norepinephrine; LC-ESI-ITFT; MS2; CE: 60;  [M+H]+
Name: Norepinephrine
Class: Benzenoids; Phenols; Benzenediols
Formula: C8H11NO3
Exact mass: 169.07389
SMILES: NC[C@H](O)C1=CC(O)=C(O)C=C1
InChI: InChI=1S/C8H11NO3/c9-4-8(12)5-1-2-6(10)7(11)3-5/h1-3,8,10-12H,4,9H2/t8-/m0/s1
Instrument: Thermo Scientific Q-Exactive Focus
Instrument type: LC-ESI-ITFT
Ms type: MS2
Ion mode: POSITIVE
Ionization: ESI
Collision energy: 60
Column name: Acquity CSHC18
Retention time: NA
Base peak: 170.08118
Precursor m/z: 170.08118
Precursor type: [M+H]+
m/z	relative intensity
50.0157	263
51.0236	999
53.0392	523
63.0235	490
77.0391	311
79.0547	114
81.0339	73
89.0389	78
95.0495	670
105.045	140
