Mass spectrum: Coniferaldehyde; LC-ESI-QTOF; MS2; CE: 50eV;  [M+H]+
Name: Coniferaldehyde
Class: Phenylpropanoid
Formula: C10H10O3
Exact mass: 178.0630
SMILES: COC1=C(C=CC(=C1)C=CC=O)O
InChI: InChI=1S/C10H10O3/c1-13-10-7-8(3-2-6-11)4-5-9(10)12/h2-7,12H,1H3
Instrument: TIMS-TOF Pro, Bruker Daltonik; Elute UHPLC System, Bruker Daltonik
Instrument type: LC-ESI-QTOF
Ms type: MS2
Ion mode: POSITIVE
Ionization: ESI
Collision energy: 50eV
Column name: Acquity CSHC18
Retention time: 5.900 min
Base peak: 179.0684
Precursor m/z: 179.0684
Precursor type: [M+H]+
Precursor intensity: 31278.69
m/z	relative intensity
63.0218	89
77.0342	96
79.0539	280
82.0412	137
90.0377	192
91.0538	625
103.0555	127
107.0378	153
115.0551	374
118.0388	176
119.0494	999
123.84	35
133.0578	154
136.0466	248
142.5099	40
146.0354	291
147.0437	959
151.0279	119
161.0572	358
