Mass spectrum: CORTEXOLONE; LC-ESI-QFT; MS2; CE: 30eV;  [M-H]-
Name: CORTEXOLONE
Class: NA
Formula: C21H30O4
Exact mass: 346.21441
SMILES: [H]C12CC[C@](O)(C(=O)CO)[C@@]1(C)CCC1([H])[C@@]2([H])CCC2=CC(=O)CC[C@]12C
InChI: InChI=1S/C21H30O4/c1-19-8-5-14(23)11-13(19)3-4-15-16(19)6-9-20(2)17(15)7-10-21(20,25)18(24)12-22/h11,15-17,22,25H,3-10,12H2,1-2H3/t15-,16?,17?,19+,20+,21+/m1/s1
Instrument: Q-Exactive Orbitrap, Thermo Scientfic; Ultimate 3000 HPLC, Thermo Scientfic
Instrument type: LC-ESI-QFT
Ms type: MS2
Ion mode: NEGATIVE
Ionization: ESI
Collision energy: 30eV
Column name: Acquity CSHC18
Retention time: 9.198 min
Base peak: 345.2071
Precursor m/z: 345.2071
Precursor type: [M-H]-
Precursor intensity: 176
m/z	relative intensity
53.0365	780
54.7302	712
63.7176	756
66.4909	647
69.5335	727
73.2856	727
74.1777	642
74.9696	775
106.5204	798
111.6186	760
135.3066	846
194.8782	739
229.7648	871
231.2905	779
247.3813	999
327.2361	971
