Mass spectrum: CORTISOL; LC-ESI-QTOF; MS2; CE: 10;  [M+H]+
Name: CORTISOL
Class: NA
Formula: C21H30O5
Exact mass: 362.20932
SMILES: [H][C@@]12CC[C@@](O)(C(=O)CO)[C@@]1(C)C[C@H](O)[C@@]1([H])[C@@]2([H])CCC2=CC(=O)CC[C@]12C
InChI: InChI=1S/C21H30O5/c1-19-7-5-13(23)9-12(19)3-4-14-15-6-8-21(26,17(25)11-22)20(15,2)10-16(24)18(14)19/h9,14-16,18,22,24,26H,3-8,10-11H2,1-2H3/t14-,15-,16-,18+,19-,20-,21+/m0/s1
Instrument: Agilent 6530Â Q-TOF LC/MS
Instrument type: LC-ESI-QTOF
Ms type: MS2
Ion mode: POSITIVE
Ionization: ESI
Collision energy: 10
Column name: NA
Retention time: 0.200 min
Base peak: 363.21860
Precursor m/z: 363.21860
Precursor type: [M+H]+
Precursor intensity: 198.5
m/z	relative intensity
97.063	136
121.0754	147
267.177	155
269.1855	165
297.1841	174
309.1884	228
327.2049	270
345.2096	330
363.2703	999
