Mass spectrum: Inosine; LC-ESI-ITFT; MS2; CE: 60;  [M-H]-
Name: Inosine
Class: Nucleosides, nucleotides, and analogues; Purine nucleosides
Formula: C10H12N4O5
Exact mass: 268.08077
SMILES: OC[C@H]1O[C@H]([C@H](O)[C@@H]1O)N1C=NC2=C1NC=NC2=O
InChI: InChI=1S/C10H12N4O5/c15-1-4-6(16)7(17)10(19-4)14-3-13-5-8(14)11-2-12-9(5)18/h2-4,6-7,10,15-17H,1H2,(H,11,12,18)/t4-,6-,7-,10-/m1/s1
Instrument: Thermo Scientific Q-Exactive Focus
Instrument type: LC-ESI-ITFT
Ms type: MS2
Ion mode: NEGATIVE
Ionization: ESI
Collision energy: 60
Column name: Acquity CSHC18
Retention time: 2.026 min
Base peak: 267.07349
Precursor m/z: 267.07349
Precursor type: [M-H]-
m/z	relative intensity
65.0133	353
65.9973	631
66.0085	28
80.0242	18
92.0242	999
92.5157	22
108.0192	781
126.0298	797
134.0224	27
135.0302	489
