Mass spectrum: 1-O-Sinapoyl-beta-D-glucose; LC-ESI-QTOF; MS2; CE: 50eV;  [M-H]-
Name: 1-O-Sinapoyl-beta-D-glucose
Class: Phenylpropanoid
Formula: C17H22O10
Exact mass: 386.1213
SMILES: COC1=CC(=CC(=C1O)OC)C=CC(=O)OC2C(C(C(C(O2)CO)O)O)O
InChI: InChI=1S/C17H22O10/c1-24-9-5-8(6-10(25-2)13(9)20)3-4-12(19)27-17-16(23)15(22)14(21)11(7-18)26-17/h3-6,11,14-18,20-23H,7H2,1-2H3
Instrument: TIMS-TOF Pro, Bruker Daltonik; Elute UHPLC System, Bruker Daltonik
Instrument type: LC-ESI-QTOF
Ms type: MS2
Ion mode: NEGATIVE
Ionization: ESI
Collision energy: 50eV
Column name: Acquity CSHC18
Retention time: 4.327 min
Base peak: 385.1068
Precursor m/z: 385.1068
Precursor type: [M-H]-
Precursor intensity: 49743.33
m/z	relative intensity
38.4439	1
44.9965	2
47.1844	1
56.9965	3
59.0127	231
60.0162	4
64.8047	1
67.0166	1
71.0126	30
72.0153	2
73.0277	2
76.2065	2
77.2451	1
83.0126	5
84.0198	2
85.0287	5
86.9528	1
89.0204	10
90.4003	1
91.0175	21
91.9571	3
95.0136	5
96.3074	1
98.8932	2
101.0229	5
104.7653	2
107.0483	1
108.722	1
110.0313	1
112.0317	5
118.7723	2
119.0113	67
119.1799	1
120.0145	5
121.0271	13
121.7202	1
127.1423	1
131.0115	1
134.0336	2
137.4689	2
139.2177	2
145.4855	2
147.0052	39
148.0087	3
149.0213	23
150.0239	3
151.7263	2
162.0318	4
163.0348	3
164.045	9
165.0503	2
165.7133	1
175	259
175.1398	2
175.3674	1
176.0027	11
177.0522	2
178.1575	3
179.0678	16
179.7986	1
185.8768	2
189.9934	110
190.2466	1
190.4076	1
190.5621	1
190.6318	1
190.7297	1
191.0282	17
191.292	2
192.0298	4
193.0099	1
194.2056	3
200.7864	2
204.9635	2
205.047	999
205.1645	2
205.2593	1
205.3987	2
205.4898	1
205.5599	1
205.7227	2
205.8064	1
205.8787	2
206.0507	90
206.2696	1
206.4402	1
206.6079	1
207.0591	5
207.4223	1
208.0586	2
217.0091	1
219.4034	1
221.0764	7
222.081	1
223.0572	112
223.2409	1
224.0591	12
225.0586	1
232.0353	5
233.0356	2
247.0563	34
248.061	4
250.0492	1
264.8065	3
265.0682	39
266.078	3
289.0852	1
295.0754	4
307.0743	1
325.0859	16
326.0845	2
349.3014	2
385.1068	86
385.342	1
