Mass spectrum: 13,14-dihydro-15-keto Prostaglandin F2-alpha isopropyl ester; ESI-TOF; MS2; CE: 6.0000000;  [M+H]+
Name: 13,14-dihydro-15-keto Prostaglandin F2-alpha isopropyl ester
Class: NA
Formula: C23H40O5
Exact mass: 396.28757
SMILES: O[C@H]1[C@H](CCC(CCCCC)=O)[C@@H](C/C=C\CCCC(OC(C)C)=O)[C@@H](O)C1
InChI: InChI=1S/C23H40O5/c1-4-5-8-11-18(24)14-15-20-19(21(25)16-22(20)26)12-9-6-7-10-13-23(27)28-17(2)3/h6,9,17,19-22,25-26H,4-5,7-8,10-16H2,1-3H3/b9-6-/t19-,20-,21+,22-/m1/s1
Instrument: waters xevo g2 TOF
Instrument type: ESI-TOF
Ms type: MS2
Ion mode: POSITIVE
Ionization: ESI
Collision energy: 6.0000000
Column name: Acquity CSHC18
Retention time: 4.604 min
Base peak: 397.29557
Precursor m/z: 397.29557
Precursor type: [M+H]+
m/z	relative intensity
169.102	6
175.1293	2
179.0913	52
185.1334	27
186.1361	3
187.1122	37
188.1041	20
189.1286	4
193.1578	9
195.5832	3
197.1004	177
197.6005	103
203.1432	65
205.1228	64
207.1748	6
213.1274	1
217.1576	6
221.151	2
235.1692	5
241.1949	5
247.1696	177
248.1717	28
259.2036	2
263.1992	11
265.1949	9
266.1969	1
283.2055	147
284.2095	23
289.2125	3
301.2172	174
302.2196	77
303.2216	5
319.1842	191
320.2043	41
335.1945	4
337.238	109
338.2399	24
343.2628	381
344.2667	95
361.2699	999
362.2709	239
363.2364	13
379.2378	588
380.2386	137
381.2916	39
393.1966	72
395.2443	16
395.7444	4
397.2948	12
