Mass spectrum: 5-Hydroxyferulate; LC-ESI-QTOF; MS2; CE: 50eV;  [M-H]-
Name: 5-Hydroxyferulate
Class: Phenylpropanoid
Formula: C10H10O5
Exact mass: 210.0528
SMILES: O=C(O)/C=C/C1=CC(O)=C(O)C(OC)=C1
InChI: InChI=1S/C10H10O5/c1-15-8-5-6(2-3-9(12)13)4-7(11)10(8)14/h2-5,11,14H,1H3,(H,12,13)/b3-2+
Instrument: TIMS-TOF Pro, Bruker Daltonik; Elute UHPLC System, Bruker Daltonik
Instrument type: LC-ESI-QTOF
Ms type: MS2
Ion mode: NEGATIVE
Ionization: ESI
Collision energy: 50eV
Column name: Acquity CSHC18
Retention time: 4.494 min
Base peak: 209.0423
Precursor m/z: 209.0423
Precursor type: [M-H]-
Precursor intensity: 15413.89
m/z	relative intensity
56.0978	7
65.0029	21
67.0179	19
70.9874	7
77.0387	13
91.1288	12
97.61	6
105.035	5
120.9959	9
121.0271	40
132.0187	7
148.0125	9
149.0232	60
150.0297	999
150.335	5
165.0523	41
194.0188	446
194.4232	6
195.7644	5
209.0423	35
