Mass spectrum: GLUCOSAMINATE; LC-ESI-QTOF; MS2; CE: 10;  [M+H]+
Name: GLUCOSAMINATE
Class: NA
Formula: C6H13NO6
Exact mass: 195.07429
SMILES: C(C(C(C(C(C(=O)O)N)O)O)O)O
InChI: InChI=1S/C6H13NO6/c7-3(6(12)13)5(11)4(10)2(9)1-8/h2-5,8-11H,1,7H2,(H,12,13)
Instrument: Agilent 6530Â Q-TOF LC/MS
Instrument type: LC-ESI-QTOF
Ms type: MS2
Ion mode: POSITIVE
Ionization: ESI
Collision energy: 10
Column name: NA
Retention time: 0.200 min
Base peak: 196.08168
Precursor m/z: 196.08168
Precursor type: [M+H]+
Precursor intensity: 72.5
m/z	relative intensity
42.0367	26
43.0196	28
44.0577	28
45.0369	28
49.0273	29
55.0207	29
56.0521	30
57.0433	32
58.0302	32
60.0602	33
61.0301	36
68.0607	39
69.0453	39
70.0394	44
71.0478	46
72.0707	46
73.0398	47
74.0424	50
76.0381	52
78.03	53
80.0553	54
81.0351	57
84.0497	57
85.0536	60
86.0688	61
87.0526	62
96.0513	67
97.0367	72
98.0641	72
103.0405	75
114.084	82
115.0594	85
116.079	105
124.0502	111
132.1081	115
132.3189	124
132.5003	141
133.0716	174
142.0576	194
150.0988	211
160.0681	260
178.0924	292
196.1432	457
196.3787	912
196.6906	999
