Mass spectrum: Glycine; LC-ESI-ITFT; MS2; CE: 60;  [M+H]+
Name: Glycine
Class: Organic acids and derivatives; Carboxylic acids and derivatives; Amino acids, peptides, and analogues
Formula: C2H5NO2
Exact mass: 75.03203
SMILES: NCC(O)=O
InChI: InChI=1S/C2H5NO2/c3-1-2(4)5/h1,3H2,(H,4,5)
Instrument: Thermo Scientific Q-Exactive Focus
Instrument type: LC-ESI-ITFT
Ms type: MS2
Ion mode: POSITIVE
Ionization: ESI
Collision energy: 60
Column name: Acquity CSHC18
Retention time: 1.731 min
Base peak: 76.03930
Precursor m/z: 76.03930
Precursor type: [M+H]+
m/z	relative intensity
55.28	843
56.8086	858
57.2363	895
69.5543	911
71.5306	887
72.561	999
81.2222	840
86.8329	983
87.6868	968
92.5415	943
