Mass spectrum: Dithiodiglycolic acid; LC-ESI-QTOF; MS2; CE: -10, -35, -60V;  [M-H]-
Name: Dithiodiglycolic acid
Class: NA
Formula: C4H6O4S2
Exact mass: 181.9708
SMILES: C(C(=O)O)SSCC(=O)O
InChI: InChI=1S/C4H6O4S2/c5-3(6)1-9-10-2-4(7)8/h1-2H2,(H,5,6)(H,7,8)
Instrument: TripleToF 5600; Sciex
Instrument type: LC-ESI-QTOF
Ms type: MS2
Ion mode: NEGATIVE
Ionization: ESI
Collision energy: -10, -35, -60V
Column name: Acquity CSHC18
Retention time: 11.321 min
Base peak: 180.9630
Precursor m/z: 180.9630
Precursor type: [M-H]-
Precursor intensity: 145811.4
m/z	relative intensity
88.9633	10
88.97	543
90.9853	999
180.9643	106
