Mass spectrum: Indoleacetic acid; LC-ESI-ITFT; MS2; CE: 100;  [M+H]+
Name: Indoleacetic acid
Class: Organoheterocyclic compounds; Indoles and derivatives; Indolyl carboxylic acids and derivatives
Formula: C10H9NO2
Exact mass: 175.06333
SMILES: OC(=O)CC1=CNC2=C1C=CC=C2
InChI: InChI=1S/C10H9NO2/c12-10(13)5-7-6-11-9-4-2-1-3-8(7)9/h1-4,6,11H,5H2,(H,12,13)
Instrument: Thermo Scientific Q-Exactive Focus
Instrument type: LC-ESI-ITFT
Ms type: MS2
Ion mode: POSITIVE
Ionization: ESI
Collision energy: 100
Column name: Acquity CSHC18
Retention time: NA
Base peak: 176.07060
Precursor m/z: 176.07060
Precursor type: [M+H]+
m/z	relative intensity
50.0157	772
51.0236	999
53.0028	94
61.0078	54
62.0157	217
63.0235	444
74.0156	200
75.0234	58
89.039	151
95.0495	42
