Mass spectrum: 4-Methoxyglucobrassicin; LC-ESI-QTOF; MS2; CE: 28.28;  [M-H]-
Name: 4-Methoxyglucobrassicin
Class: NA
Formula: C17H22N2O10S2
Exact mass: 478.0716
SMILES: COC1=CC=CC2=C1C(=CN2)CC(=NOS(=O)(=O)O)SC3C(C(C(C(O3)CO)O)O)O
InChI: InChI=1S/C17H22N2O10S2/c1-27-10-4-2-3-9-13(10)8(6-18-9)5-12(19-29-31(24,25)26)30-17-16(23)15(22)14(21)11(7-20)28-17/h2-4,6,11,14-18,20-23H,5,7H2,1H3,(H,24,25,26)
Instrument: Bruker MicrOTOF-Q
Instrument type: LC-ESI-QTOF
Ms type: MS2
Ion mode: NEGATIVE
Ionization: ESI
Collision energy: 28.28
Column name: Acquity CSHC18
Retention time: NA
Base peak: 477.0643
Precursor m/z: 477.0643
Precursor type: [M-H]-
m/z	relative intensity
46.1754	2
47.0961	1
47.7903	1
48.4422	2
49.6841	2
53.6988	1
54.892	1
68.9208	2
70.6229	2
71.0858	3
71.6496	3
75.8295	2
77.3054	2
78.8813	2
79.9534	17
81.7219	1
82.96	1
95.8846	856
96.8705	999
97.9638	55
99.0351	58
101.0248	17
111.9285	26
112.9335	8
114.0545	2
114.9306	3
117.0027	4
121.956	20
127.9238	72
128.9294	35
129.9227	8
137.0294	2
138.9699	130
140.9664	7
143.0361	6
146.0512	3
154.947	5
156.0402	8
160.0785	4
174.0526	16
175.0527	6
184.0271	14
192.0301	1
195.0334	18
198.9911	34
201.0671	20
202.0306	169
204.0336	13
219.0724	10
220.0431	19
221.0462	5
234.0361	5
235.0533	372
236.0567	47
237.0487	24
241.0003	84
242.0001	8
244.1064	4
254.0055	8
256.9827	4
258.932	244
260.0172	47
261.0113	33
265.0319	3
274.9897	321
275.9942	19
276.9854	30
280.9787	13
284.0033	80
285.0058	7
477.0671	32
480.0737	1
