Mass spectrum: 16-phenoxy tetranor Prostaglandin F2-alpha; ESI-TOF; MS2; CE: 6.0000000;  [M+H]+
Name: 16-phenoxy tetranor Prostaglandin F2-alpha
Class: NA
Formula: C22H30O6
Exact mass: 390.20424
SMILES: O[C@@H]1[C@H](C/C=C\CCCC(O)=O)[C@@H](/C=C/[C@@H](O)COC2=CC=CC=C2)[C@H](O)C1
InChI: InChI=1S/C22H30O6/c23-16(15-28-17-8-4-3-5-9-17)12-13-19-18(20(24)14-21(19)25)10-6-1-2-7-11-22(26)27/h1,3-6,8-9,12-13,16,18-21,23-25H,2,7,10-11,14-15H2,(H,26,27)/b6-1-,13-12+/t16-,18-,19-,20+,21-/m1/s1
Instrument: waters xevo g2 TOF
Instrument type: ESI-TOF
Ms type: MS2
Ion mode: POSITIVE
Ionization: ESI
Collision energy: 6.0000000
Column name: Acquity CSHC18
Retention time: 3.229 min
Base peak: 391.21224
Precursor m/z: 391.21224
Precursor type: [M+H]+
m/z	relative intensity
83.0498	1
88.0757	1
91.055	1
105.0727	1
117.0708	1
119.0861	1
131.0868	12
141.0718	1
143.0879	7
147.1182	10
158.1537	57
161.0981	30
163.9757	9
169.0992	7
171.1183	12
183.1184	17
189.1278	38
225.1265	60
233.1534	13
243.1385	214
244.1408	29
261.0602	1
261.1499	116
262.1521	15
274.2738	413
279.1598	327
280.1642	42
293.1683	13
337.1796	61
354.0899	94
355.095	20
355.19	36
372.1019	79
383.0913	1
397.2168	12
411.1763	1
413.1949	999
414.1978	234
415.1998	28
429.1606	345
430.1633	59
444.1298	48
445.1318	258
446.1331	58
447.1376	121
450.1351	12
803.3955	53
804.3957	20
819.3591	43
820.372	1
834.335	56
835.334	73
836.3302	22
837.3326	29
839.3331	13
