Mass spectrum: (20R,22S,25S)-22,26-Epimino-5alpha-cholestan-3beta,20-diol; APCI-ITFT; MS2; CE: CID 35;  [M-H]-
Name: (20R,22S,25S)-22,26-Epimino-5alpha-cholestan-3beta,20-diol
Class: NA
Formula: C27H47NO2
Exact mass: 417.36068
SMILES: C[C@H](CN1)CC[C@H]1[C@](C)(O)[C@H]2CC[C@@]3([H])[C@]4([H])CC[C@@]5([H])C[C@@H](O)CC[C@]5(C)[C@@]4([H])CC[C@]23C
InChI: InChI=1S/C27H47NO2/c1-17-5-10-24(28-16-17)27(4,30)23-9-8-21-20-7-6-18-15-19(29)11-13-25(18,2)22(20)12-14-26(21,23)3/h17-24,28-30H,5-16H2,1-4H3/t17-,18-,19-,20-,21-,22-,23-,24-,25-,26-,27+/m0/s1
Instrument: Orbitrap Elite
Instrument type: APCI-ITFT
Ms type: MS2
Ion mode: NEGATIVE
Ionization: APCI
Collision energy: CID 35
Column name: Acquity CSHC18
Retention time: 0.106 min
Base peak: 416.35300
Precursor m/z: 416.35300
Precursor type: [M-H]-
Precursor intensity: 13000990
m/z	relative intensity
122.0974	3
124.0775	2
136.0772	2
138.0926	16
139.096	1
140.1079	999
141.1121	68
273.2228	17
274.2254	2
275.2391	21
276.2408	3
293.2504	1
315.2331	4
317.2487	86
318.252	13
328.2642	1
331.2662	1
347.261	22
372.292	3
396.3292	2
398.3472	12
400.3185	883
401.3273	210
402.3265	2
415.004	1
