Mass spectrum: Myo-inositol; LC-ESI-QTOF; MS2; CE: 15;  [M+HCOOH-H]-
Name: Myo-inositol
Class: NA
Formula: C6H12O6
Exact mass: 180.0634
SMILES: C1(C(C(C(C(C1O)O)O)O)O)O
InChI: InChI=1S/C6H12O6/c7-1-2(8)4(10)6(12)5(11)3(1)9/h1-12H
Instrument: Bruker MicrOTOF-Q
Instrument type: LC-ESI-QTOF
Ms type: MS2
Ion mode: NEGATIVE
Ionization: ESI
Collision energy: 15
Column name: Acquity CSHC18
Retention time: NA
Base peak: 225.0616
Precursor m/z: 225.0616
Precursor type: [M+HCOOH-H]-
m/z	relative intensity
87.0087	94
101.0258	76
113.0218	70
117.0186	341
125.0257	306
141.0221	145
159.03	71
161.0442	869
162.0501	56
179.0571	999
