Mass spectrum: HYPOTAURINE; LC-ESI-QFT; MS2; CE: 30eV;  [M+H]+
Name: HYPOTAURINE
Class: NA
Formula: C2H7NO2S
Exact mass: 109.01975
SMILES: NCCS(O)=O
InChI: InChI=1S/C2H7NO2S/c3-1-2-6(4)5/h1-3H2,(H,4,5)
Instrument: Q-Exactive Orbitrap, Thermo Scientfic; Ultimate 3000 HPLC, Thermo Scientfic
Instrument type: LC-ESI-QFT
Ms type: MS2
Ion mode: POSITIVE
Ionization: ESI
Collision energy: 30eV
Column name: Acquity CSHC18
Retention time: 0.612 min
Base peak: 110.0270
Precursor m/z: 110.0270
Precursor type: [M+H]+
Precursor intensity: 178
m/z	relative intensity
54.9653	10
67.055	95
68.9528	65
68.9829	54
71.5624	10
74.0067	15
79.0548	14
81.0705	47
82.0144	11
84.1814	10
86.9933	111
92.0171	999
94.0418	9
97.0905	11
100.025	131
105.0038	343
106.0047	16
109.0655	13
109.1016	85
110.0275	766
110.0605	47
111.0448	13
111.0559	11
115.3745	10
116.4817	16
118.0354	66
120.6858	11
123.0142	77
128.0195	13
