Mass spectrum: guanine; LC-ESI-QTOF; MS2; CE: 15.00;  [M+H]+
Name: guanine
Class: NA
Formula: C5H5N5O
Exact mass: 151.0494
SMILES: C1=NC2=C(N1)C(=O)N=C(N2)N
InChI: InChI=1S/C5H5N5O/c6-5-9-3-2(4(11)10-5)7-1-8-3/h1H,(H4,6,7,8,9,10,11)
Instrument: Bruker MicrOTOF-Q
Instrument type: LC-ESI-QTOF
Ms type: MS2
Ion mode: POSITIVE
Ionization: ESI
Collision energy: 15.00
Column name: Acquity CSHC18
Retention time: NA
Base peak: 152.0567
Precursor m/z: 152.0567
Precursor type: [M+H]+
m/z	relative intensity
90.5938	3
110.0349	111
111.0397	10
135.0315	45
135.9083	3
136.0142	999
136.1392	4
136.2254	4
136.2813	3
136.3405	4
136.5814	6
137.015	67
137.1201	3
140.465	4
140.9472	7
152.0581	50
152.8744	5
153.0424	446
153.4075	4
154.0259	142
155.0276	5
156.0299	4
235.9879	3
243.1366	4
341.4623	3
