Mass spectrum: acyl sugar_S3:20 (5,5,10); LC-ESI-ITFT; MS2; CE: 35 NCE;  [M+FA-H]-
Name: acyl sugar_S3:20 (5,5,10)
Class: acyl sugar
Formula: C32H56O14
Exact mass: 664.3670
SMILES: CCC(C)C(=O)OC1C(C(OC(C1OC(=O)CC(C)C)CO)OC2(C(C(C(O2)CO)O)OC(=O)CCCCCCC(C)C)CO)O
InChI: InChI=1S/C32H56O14/c1-7-20(6)30(40)44-28-26(39)31(41-22(16-34)27(28)42-24(37)14-19(4)5)46-32(17-35)29(25(38)21(15-33)45-32)43-23(36)13-11-9-8-10-12-18(2)3/h18-22,25-29,31,33-35,38-39H,7-17H2,1-6H3
Instrument: LTQ Orbitrap XL, Thermo Scientfic; Aquity (U)HPLC, Waters
Instrument type: LC-ESI-ITFT
Ms type: MS2
Ion mode: NEGATIVE
Ionization: ESI
Collision energy: 35 NCE
Column name: Acquity CSHC18
Retention time: 44.182 min
Base peak: 709.3674
Precursor m/z: 709.3674
Precursor type: [M+FA-H]-
Precursor intensity: 425910.4
m/z	relative intensity
233.5607	20
368.5333	28
411.1492	51
495.209	999
561.2944	79
662.6114	25
