Mass spectrum: Catechin; ESI-TOF; MS2; CE: 6.0000000;  [M+H]+
Name: Catechin
Class: NA
Formula: C15H14O6
Exact mass: 290.07904
SMILES: OC1CC2=C(O)C=C(O)C=C2OC1C1=CC(O)=C(O)C=C1
InChI: InChI=1S/C15H14O6/c16-8-4-11(18)9-6-13(20)15(21-14(9)5-8)7-1-2-10(17)12(19)3-7/h1-5,13,15-20H,6H2
Instrument: waters xevo g2 TOF
Instrument type: ESI-TOF
Ms type: MS2
Ion mode: POSITIVE
Ionization: ESI
Collision energy: 6.0000000
Column name: Acquity CSHC18
Retention time: 1.834 min
Base peak: 291.08704
Precursor m/z: 291.08704
Precursor type: [M+H]+
m/z	relative intensity
95.05	3
113.9642	19
123.0446	422
124.0484	36
127.0391	2
135.0446	3
137.0601	4
139.0395	999
140.0429	80
141.0573	9
147.0445	58
148.0476	5
149.0599	4
151.0394	77
161.0254	1
163.0393	40
165.0549	221
166.0586	18
167.0622	2
169.0496	35
170.0538	2
172.9777	10
181.0496	14
182.0528	1
185.5346	4
189.0538	1
205.0505	5
207.0657	27
213.0737	1
225.0558	1
231.0659	3
243.0654	8
245.0445	4
249.0761	19
250.0786	1
259.0604	2
261.1322	17
271.0608	20
273.0757	57
274.0801	3
275.0912	16
276.0966	2
287.0529	1
289.0712	394
290.0744	59
291.0865	863
292.0903	142
