Mass spectrum: acyl sugar_S4:16 (2,4,5,5); LC-ESI-ITFT; MS2; CE: 35 NCE;  [M+FA-H]-
Name: acyl sugar_S4:16 (2,4,5,5)
Class: acyl sugar
Formula: C28H46O15
Exact mass: 622.2837
SMILES: CC(C)CC(=O)OC1C(OC(C(C1OC(=O)C(C)C)OC(=O)C)OC2(C(C(C(O2)CO)O)OC(=O)CC(C)C)CO)CO
InChI: InChI=1S/C28H46O15/c1-13(2)8-19(33)39-22-18(11-30)38-27(24(37-16(7)32)23(22)41-26(36)15(5)6)43-28(12-31)25(21(35)17(10-29)42-28)40-20(34)9-14(3)4/h13-15,17-18,21-25,27,29-31,35H,8-12H2,1-7H3
Instrument: LTQ Orbitrap XL, Thermo Scientfic; Aquity (U)HPLC, Waters
Instrument type: LC-ESI-ITFT
Ms type: MS2
Ion mode: NEGATIVE
Ionization: ESI
Collision energy: 35 NCE
Column name: Acquity CSHC18
Retention time: 25.936 min
Base peak: 667.2842
Precursor m/z: 667.2842
Precursor type: [M+FA-H]-
Precursor intensity: 347541.2
m/z	relative intensity
371.9469	58
439.8685	70
495.2091	437
537.2197	999
