Mass spectrum: 1-desoxymethylsphinganine (m17:0); ESI-TOF; MS2; CE: 0.6458333;  [M+H]+
Name: 1-desoxymethylsphinganine (m17:0)
Class: NA
Formula: C17H37NO
Exact mass: 271.28751
SMILES: [H]OC([H])(C([H])([H])N([H])[H])C([H])([H])C([H])([H])C([H])([H])C([H])([H])C([H])([H])C([H])([H])C([H])([H])C([H])([H])C([H])([H])C([H])([H])C([H])([H])C([H])([H])C([H])([H])C([H])([H])C([H])([H])[H]
InChI: InChI=1S/C17H37NO/c1-2-3-4-5-6-7-8-9-10-11-12-13-14-15-17(19)16-18/h17,19H,2-16,18H2,1H3
Instrument: waters xevo g2 TOF
Instrument type: ESI-TOF
Ms type: MS2
Ion mode: POSITIVE
Ionization: ESI
Collision energy: 0.6458333
Column name: Acquity CSHC18
Retention time: 4.376 min
Base peak: 272.29551
Precursor m/z: 272.29551
Precursor type: [M+H]+
m/z	relative intensity
55.0555	12
57.0712	3
67.0546	1
69.0703	121
70.0741	5
71.0862	19
83.0861	173
84.0897	12
85.1016	30
97.1012	141
98.1048	6
111.1177	33
125.1325	4
254.2849	999
255.2881	211
256.2913	20
268.3003	18
269.3027	3
272.2955	47
273.2984	3
282.3155	57
283.319	11
294.2774	13
300.3265	12
301.3297	2
356.2465	4
582.47	2
597.4913	4
599.4998	7
600.5013	2
601.4977	2
969.7074	2
971.6989	1
