Mass spectrum: (-)-Jasmonic acid; LC-ESI-QTOF; MS2; CE: 15.00;  [M+H]+
Name: (-)-Jasmonic acid
Class: NA
Formula: C12H18O3
Exact mass: 210.1256
SMILES: CCC=CCC1C(CCC1=O)CC(=O)O
InChI: InChI=1S/C12H18O3/c1-2-3-4-5-10-9(8-12(14)15)6-7-11(10)13/h3-4,9-10H,2,5-8H2,1H3,(H,14,15)
Instrument: Bruker MicrOTOF-Q
Instrument type: LC-ESI-QTOF
Ms type: MS2
Ion mode: POSITIVE
Ionization: ESI
Collision energy: 15.00
Column name: Acquity CSHC18
Retention time: NA
Base peak: 211.1329
Precursor m/z: 211.1329
Precursor type: [M+H]+
m/z	relative intensity
63.0122	15
91.0448	82
93.0731	31
95.0431	18
105.069	153
106.0612	27
107.0295	15
107.0792	46
109.0651	149
111.0764	20
113.0571	43
114.0627	22
115.0499	21
119.079	62
121.1065	37
124.0878	15
127.0761	25
131.0812	51
132.0838	18
133.1016	999
134.1038	36
135.0817	22
137.0586	91
137.1258	31
142.0765	34
146.084	22
147.1144	246
148.1229	15
149.0928	59
151.1114	655
152.1193	94
155.0691	182
157.0909	20
165.1264	84
168.9538	20
175.11	159
176.1136	59
184.9244	20
184.9704	15
193.1193	179
193.9193	25
194.1239	55
204.0547	15
211.129	42
212.1447	32
308.8519	23
379.0463	15
