Mass spectrum: Butanetriol; ESI-TOF; MS2; CE: 6.0000000;  [M+H]+
Name: Butanetriol
Class: NA
Formula: C4H10O3
Exact mass: 106.06299
SMILES: CCCC(O)(O)O
InChI: InChI=1S/C4H10O3/c1-2-3-4(5,6)7/h5-7H,2-3H2,1H3
Instrument: waters xevo g2 TOF
Instrument type: ESI-TOF
Ms type: MS2
Ion mode: POSITIVE
Ionization: ESI
Collision energy: 6.0000000
Column name: Acquity CSHC18
Retention time: 0.585 min
Base peak: 107.07099
Precursor m/z: 107.07099
Precursor type: [M+H]+
m/z	relative intensity
71.0504	13
89.0605	1
95.9708	1
96.962	45
97.9696	45
99.9702	17
101.9415	7
103.024	3
103.9591	2
108.035	5
108.9623	1
112.0208	3
113.0242	23
117.0389	37
117.5411	1
119.5428	1
121.0653	3
126.0108	105
126.5472	16
126.9726	11
128.0271	2
129.0111	315
129.9698	11
133.9987	4
135.0316	9
139.9643	21
140.9923	10
141.9728	383
142.986	6
143.9601	11
144.9935	15
145.9615	25
146.5388	1
147.9536	2
149.0401	6
158.9942	3
159.9706	6
160.9901	38
161.9841	8
162.9914	19
165.0062	4
170.0039	1
170.9981	35
175.006	5
175.9767	3
179.001	25
182.9859	35
183.9617	1
186.0051	1
190.0125	12
191.0236	17
192.0087	617
193.0122	16
195.0157	1
196.9681	3
202.0161	28
205.9887	36
206.9965	15
208.0129	19
210.9925	11
225.9497	5
230.9608	5
234.0395	20
235.028	14
236.0349	999
237.0628	119
238.0659	10
239.0239	12
240.0238	2
243.1037	2
246.8634	2
251.0817	1
257.0518	4
258.8849	5
262.0511	11
264.0513	10
265.0573	9
266.0457	455
267.0522	96
268.0543	12
269.0544	19
271.0498	7
287.8907	1
299.9387	3
314.0767	2
320.9712	5
332.9789	1
347.9564	2
349.9964	10
425.0191	6
437.0183	4
