Mass spectrum: F6P; LC-ESI-QTOF; MS2; CE: 10;  [M-H]-
Name: F6P
Class: NA
Formula: C6H13O9P
Exact mass: 260.0297
SMILES: C(C(C(C(C(=O)CO)O)O)O)OP(=O)(O)O
InChI: InChI=1S/C6H13O9P/c7-1-3(8)5(10)6(11)4(9)2-15-16(12,13)14/h4-7,9-11H,1-2H2,(H2,12,13,14)
Instrument: impact II
Instrument type: LC-ESI-QTOF
Ms type: MS2
Ion mode: NEGATIVE
Ionization: ESI
Collision energy: 10
Column name: Acquity CSHC18
Retention time: 1.846 min
Base peak: 259.0223
Precursor m/z: 259.0223
Precursor type: [M-H]-
m/z	relative intensity
78.9596	177
96.9698	999
138.9803	191
168.9907	138
259.0222	177
259.9361	286
