Mass spectrum: 4-Hydroxy-3-methoxybenzaldehyde; LC-ESI-QTOF; MS2; CE: 15.00;  [M-H]-
Name: 4-Hydroxy-3-methoxybenzaldehyde
Class: NA
Formula: C8H8O3
Exact mass: 152.0473
SMILES: COC1=C(C=CC(=C1)C=O)O
InChI: InChI=1S/C8H8O3/c1-11-8-4-6(5-9)2-3-7(8)10/h2-5,10H,1H3
Instrument: Bruker MicrOTOF-Q
Instrument type: LC-ESI-QTOF
Ms type: MS2
Ion mode: NEGATIVE
Ionization: ESI
Collision energy: 15.00
Column name: Acquity CSHC18
Retention time: NA
Base peak: 151.0401
Precursor m/z: 151.0401
Precursor type: [M-H]-
m/z	relative intensity
54.1442	29
74.6749	28
89.177	42
102.6438	114
116.1149	27
121.103	28
123.5751	33
125.4173	31
128.7819	24
131.459	23
136.5675	999
141.8076	19
142.6199	18
143.6237	15
146.9355	38
149.4023	17
151.0379	218
153.0166	14
155.2052	14
156.039	19
157.484	30
163.4434	30
166.2601	27
174.8681	24
180.8786	16
183.6205	28
186.6591	14
200.1327	17
212.7389	24
218.7441	20
220.5765	14
271.5181	22
273.2029	22
278.426	17
295.9383	14
298.9514	24
300.9668	22
311.9891	29
315.3928	15
319.7787	20
320.3242	20
324.5786	22
345.4842	29
349.5323	31
350.6546	24
364.1038	23
391.9594	20
432.8603	14
456.1898	24
479.6451	22
481.1875	24
492.3596	33
496.0381	16
497.5838	15
560.8623	14
645.4431	21
702.3279	21
749.4335	21
916.2412	23
934.2401	14
946.2333	26
970.8237	14
