Mass spectrum: ASPARAGINE; LC-ESI-QTOF; MS2; CE: 20;  [M+H]+
Name: ASPARAGINE
Class: NA
Formula: C4H8N2O3
Exact mass: 132.0535
SMILES: N[C@@H](CC(N)=O)C(O)=O
InChI: InChI=1S/C4H8N2O3/c5-2(4(8)9)1-3(6)7/h2H,1,5H2,(H2,6,7)(H,8,9)/t2-/m0/s1
Instrument: Agilent 6530Â Q-TOF LC/MS
Instrument type: LC-ESI-QTOF
Ms type: MS2
Ion mode: POSITIVE
Ionization: ESI
Collision energy: 20
Column name: NA
Retention time: 0.200 min
Base peak: 133.06084
Precursor m/z: 133.06084
Precursor type: [M+H]+
Precursor intensity: 115.5
m/z	relative intensity
40.7959	37
41.9412	105
43.0156	589
43.6496	105
44.4957	68
45.3499	31
45.3975	80
45.44	130
45.4686	24
46.1439	24
46.1731	18
46.273	86
49.8494	148
51.7642	105
52.9318	37
54.7884	111
55.5197	142
58.7037	74
58.7268	18
59.2888	49
59.3022	37
62.9255	359
64.9275	564
65.6966	192
65.8364	74
66.7693	37
68.3856	18
68.9432	179
73.7843	43
73.9268	31
74.0311	43
74.1416	62
75.2304	49
78.0968	80
80.0324	99
87.311	43
87.3333	24
87.7163	68
90.9014	266
90.9646	24
93.8529	142
93.8791	49
98.4778	192
99.9352	24
103.3029	18
104.5093	37
104.6004	124
105.072	521
106.4153	62
109.4452	136
111.4007	235
116.034	999
116.1782	12
121.9277	68
122.0533	24
128.5267	248
128.5947	12
132.9069	18
137.4474	186
