Mass spectrum: 2-Furoylglycine; ESI-TOF; MS2; CE: 6.0000000;  [M+H]+
Name: 2-Furoylglycine
Class: NA
Formula: C7H7NO4
Exact mass: 169.03751
SMILES: OC(=O)CNC(=O)C1=CC=CO1
InChI: InChI=1S/C7H7NO4/c9-6(10)4-8-7(11)5-2-1-3-12-5/h1-3H,4H2,(H,8,11)(H,9,10)
Instrument: waters xevo g2 TOF
Instrument type: ESI-TOF
Ms type: MS2
Ion mode: POSITIVE
Ionization: ESI
Collision energy: 6.0000000
Column name: Acquity CSHC18
Retention time: 1.627 min
Base peak: 170.04551
Precursor m/z: 170.04551
Precursor type: [M+H]+
m/z	relative intensity
95.0135	728
96.0168	62
97.0184	9
113.024	1
113.9866	10
124.0008	334
125.0432	75
126.0453	9
146.0131	1
152.0349	391
153.0128	18
170.0336	999
171.0485	67
172.0499	13
172.9778	16
175.0525	3
176.0172	19
177.0563	3
180.9819	9
181.9955	2
192.0273	640
192.9906	30
194.0315	13
196.9775	15
197.9826	5
198.9924	2
207.9924	17
210.9935	52
214.0084	2
221.0014	19
222.0076	8
223.0017	9
224.9726	50
226.0017	6
229.9868	1
254.9829	2
258.1709	5
269.9712	11
283.0249	3
289.0502	8
289.9991	78
300.4975	4
302.0972	1
305.0219	18
308.4847	6
315.0606	2
318.0136	3
320.0095	36
344.0105	3
348.0045	13
349.0107	11
351.0128	28
352.0149	4
361.0524	6
363.0407	40
364.0446	10
377.0296	117
378.0328	27
379.0339	6
384.5111	3
389.9988	16
391.0044	11
391.9944	249
393.0002	122
394.0026	33
395.0029	30
396.004	6
396.9987	8
397.999	2
414.9808	1
419.4587	1
546.0672	37
547.0711	5
561.0194	30
563.0354	2
564.0384	6
566.0393	2
583.0133	13
598.9845	1
599.9842	2
604.9979	2
614.9559	1
616.9631	3
768.0171	2
774.033	10
775.0356	4
782.9804	6
783.9848	5
785.9886	2
790.0049	1
