Mass spectrum: Sesamin; LC-ESI-QTOF; MS2; CE: 17.78;  [M-H2O+H]+
Name: Sesamin
Class: NA
Formula: C20H18O6
Exact mass: 354.1103
SMILES: C1C2C(COC2C3=CC4=C(C=C3)OCO4)C(O1)C5=CC6=C(C=C5)OCO6
InChI: InChI=1S/C20H18O6/c1-3-15-17(25-9-23-15)5-11(1)19-13-7-22-20(14(13)8-21-19)12-2-4-16-18(6-12)26-10-24-16/h1-6,13-14,19-20H,7-10H2
Instrument: Bruker MicrOTOF-Q
Instrument type: LC-ESI-QTOF
Ms type: MS2
Ion mode: POSITIVE
Ionization: ESI
Collision energy: 17.78
Column name: Acquity CSHC18
Retention time: NA
Base peak: 337.1071
Precursor m/z: 337.1071
Precursor type: [M-H2O+H]+
m/z	relative intensity
129.0692	34
135.043	34
149.0547	34
157.0647	36
173.0597	37
174.0643	37
175.0408	39
185.0602	41
186.0643	45
187.0756	48
188.0784	49
197.0603	50
203.0864	50
209.0599	51
215.0712	54
219.0801	56
231.0807	60
232.0838	79
237.0555	88
238.0609	91
247.076	100
249.092	113
259.0753	122
260.0813	132
261.0917	135
262.0931	140
266.0582	147
267.0655	149
268.0689	151
274.0636	154
277.0874	201
278.0882	208
279.0717	209
280.0724	215
289.0872	234
290.0892	237
293.0811	238
304.0736	281
305.078	292
307.0965	397
319.0976	466
320.0995	540
337.1084	951
338.1113	999
