Mass spectrum: Luteolin 4'-methyl ether; LC-ESI-QTOF; MS2; CE: 50eV;  [M+H]+
Name: Luteolin 4'-methyl ether
Class: Falvone
Formula: C16H12O6
Exact mass: 300.0634
SMILES: COC1=C(C=C(C=C1)C2=CC(=O)C3=C(C=C(C=C3O2)O)O)O
InChI: InChI=1S/C16H12O6/c1-21-13-3-2-8(4-10(13)18)14-7-12(20)16-11(19)5-9(17)6-15(16)22-14/h2-7,17-19H,1H3
Instrument: TIMS-TOF Pro, Bruker Daltonik; Elute UHPLC System, Bruker Daltonik
Instrument type: LC-ESI-QTOF
Ms type: MS2
Ion mode: POSITIVE
Ionization: ESI
Collision energy: 50eV
Column name: Acquity CSHC18
Retention time: 7.523 min
Base peak: 301.0686
Precursor m/z: 301.0686
Precursor type: [M+H]+
Precursor intensity: 513216.1
m/z	relative intensity
78.0471	2
105.0315	1
117.0702	1
126.0371	1
133.0265	1
139.0497	1
150.031	1
152.7014	1
153.0192	20
154.0198	2
178.0296	1
187.0363	2
201.053	1
203.0263	2
229.0492	30
230.0516	6
230.885	1
240.0411	1
257.045	12
258.0329	8
258.0508	127
258.9716	1
259.0508	7
260.0554	1
279.0393	1
286.0129	3
286.0451	158
287.0496	15
288.0532	1
300.8511	1
300.997	3
301.0658	999
301.3467	1
301.5616	7
