Mass spectrum: Notoginsenoside R2; LC-ESI-QFT; MS2; CE: 15,30,45 (NCE);  [M+Cl]-
Name: Notoginsenoside R2
Class: NA
Formula: C41H70O13
Exact mass: 770.4816
SMILES: CC(C)=CCCC(C)(O)C1CCC2(C)C1C(O)CC1C3(C)CCC(O)C(C)(C)C3C(CC21C)OC1OC(CO)C(O)C(O)C1OC1OCC(O)C(O)C1O
InChI: InChI=1S/C41H70O13/c1-20(2)10-9-13-41(8,50)21-11-15-39(6)28(21)22(43)16-26-38(5)14-12-27(45)37(3,4)34(38)24(17-40(26,39)7)52-36-33(31(48)30(47)25(18-42)53-36)54-35-32(49)29(46)23(44)19-51-35/h10,21-36,42-50H,9,11-19H2,1-8H3
Instrument: QE Focus, Thermo Scientfic; UPLC I-Class, Waters
Instrument type: LC-ESI-QFT
Ms type: MS2
Ion mode: NEGATIVE
Ionization: ESI
Collision energy: 15,30,45 (NCE)
Column name: Acquity CSHC18
Retention time: 2.671 min
Base peak: 805.4526
Precursor m/z: 805.4526
Precursor type: [M+Cl]-
Precursor intensity: 3235255
m/z	relative intensity
92.0151	336
270.3948	177
475.3789	999
