Mass spectrum: FBP; LC-ESI-QTOF; MS2; CE: 60;  [M-H]-
Name: FBP
Class: Hexose phosphates
Formula: C6H14O12P2
Exact mass: 339.9960
SMILES: O[C@H]1[C@H](O)[C@@](O)(COP(O)(O)=O)O[C@@H]1COP(O)(O)=O
InChI: InChI=1S/C6H14O12P2/c7-4-3(1-16-19(10,11)12)18-6(9,5(4)8)2-17-20(13,14)15/h3-5,7-9H,1-2H2,(H2,10,11,12)(H2,13,14,15)/t3-,4-,5+,6-/m1/s1
Instrument: impact II
Instrument type: LC-ESI-QTOF
Ms type: MS2
Ion mode: NEGATIVE
Ionization: ESI
Collision energy: 60
Column name: Acquity CSHC18
Retention time: 1.933 min
Base peak: 338.9883
Precursor m/z: 338.9883
Precursor type: [M-H]-
m/z	relative intensity
78.9594	999
96.9696	121
