Mass spectrum: N-Methyl-D-aspartic acid; LC-ESI-ITFT; MS2; CE: 30;  [M-H]-
Name: N-Methyl-D-aspartic acid
Class: Organic acids and derivatives; Carboxylic acids and derivatives; Amino acids, peptides, and analogues
Formula: C5H9NO4
Exact mass: 147.05316
SMILES: CN[C@H](CC(O)=O)C(O)=O
InChI: InChI=1S/C5H9NO4/c1-6-3(5(9)10)2-4(7)8/h3,6H,2H2,1H3,(H,7,8)(H,9,10)/t3-/m1/s1
Instrument: Thermo Scientific Q-Exactive Focus
Instrument type: LC-ESI-ITFT
Ms type: MS2
Ion mode: NEGATIVE
Ionization: ESI
Collision energy: 30
Column name: Acquity CSHC18
Retention time: 0.931 min
Base peak: 146.04588
Precursor m/z: 146.04588
Precursor type: [M-H]-
m/z	relative intensity
69.8711	103
71.0126	999
81.0326	101
82.5329	101
105.6539	100
109.3767	107
114.2901	101
127.959	98
160.2944	100
160.3799	101
