Mass spectrum: L-Cystine; LC-ESI-ITFT; MS2; CE: 40;  [M+H]+
Name: L-Cystine
Class: Organic acids and derivatives; Carboxylic acids and derivatives; Amino acids, peptides, and analogues
Formula: C6H12N2O4S2
Exact mass: 240.02385
SMILES: N[C@@H](CSSC[C@H](N)C(O)=O)C(O)=O
InChI: InChI=1S/C6H12N2O4S2/c7-3(5(9)10)1-13-14-2-4(8)6(11)12/h3-4H,1-2,7-8H2,(H,9,10)(H,11,12)/t3-,4-/m0/s1
Instrument: Thermo Scientific Q-Exactive Focus
Instrument type: LC-ESI-ITFT
Ms type: MS2
Ion mode: POSITIVE
Ionization: ESI
Collision energy: 40
Column name: Acquity CSHC18
Retention time: 1.463 min
Base peak: 241.03111
Precursor m/z: 241.03111
Precursor type: [M+H]+
m/z	relative intensity
55.0184	47
58.9956	88
73.0289	64
74.0064	999
74.0242	558
76.022	95
86.9903	34
92.0169	30
105.0008	25
120.0116	165
