Mass spectrum: 4-Guanidinobutanoic acid; ESI-TOF; MS2; CE: 0.6458333;  [M+H]+
Name: 4-Guanidinobutanoic acid
Class: NA
Formula: C5H11N3O2
Exact mass: 145.08513
SMILES: NC(N)=NCCCC(O)=O
InChI: InChI=1S/C5H11N3O2/c6-5(7)8-3-1-2-4(9)10/h1-3H2,(H,9,10)(H4,6,7,8)
Instrument: waters xevo g2 TOF
Instrument type: ESI-TOF
Ms type: MS2
Ion mode: POSITIVE
Ionization: ESI
Collision energy: 0.6458333
Column name: Acquity CSHC18
Retention time: 0.538 min
Base peak: 146.09313
Precursor m/z: 146.09313
Precursor type: [M+H]+
m/z	relative intensity
60.0571	20
68.0512	7
69.0348	60
83.0614	31
86.0612	821
87.0451	999
88.0492	42
98.9626	73
99.9701	79
100.9579	21
102.0038	9
104.0713	128
111.0563	145
112.0587	6
128.0213	60
129.0668	21
141.9592	21
146.1904	120
147.0956	35
172.9711	14
185.9865	1
217.861	10
224.0258	8
266.0459	4
267.0527	2
291.1782	16
326.0791	4
