Mass spectrum: Sinapoyl malate; LC-ESI-QTOF; MS2; CE: 50eV;  [M-H]-
Name: Sinapoyl malate
Class: Phenylpropanoid
Formula: C15H16O9
Exact mass: 340.0794
SMILES: COC1=CC(=CC(=C1O)OC)C=CC(=O)OC(CC(=O)O)C(=O)O
InChI: InChI=1S/C15H16O9/c1-22-9-5-8(6-10(23-2)14(9)19)3-4-13(18)24-11(15(20)21)7-12(16)17/h3-6,11,19H,7H2,1-2H3,(H,16,17)(H,20,21)
Instrument: TIMS-TOF Pro, Bruker Daltonik; Elute UHPLC System, Bruker Daltonik
Instrument type: LC-ESI-QTOF
Ms type: MS2
Ion mode: NEGATIVE
Ionization: ESI
Collision energy: 50eV
Column name: Acquity CSHC18
Retention time: 5.754 min
Base peak: 339.0665
Precursor m/z: 339.0665
Precursor type: [M-H]-
Precursor intensity: 254969.8
m/z	relative intensity
26.0003	2
42.2271	12
43.0187	16
44.0497	6
45.8616	7
49.9888	6
53.1291	3
55.2765	13
67.2556	4
71.0126	246
72.0167	9
72.9914	31
77.0373	7
78.8917	6
84.6221	4
89.0383	16
91.019	4
91.4769	2
93.672	8
103.5536	3
104.0242	20
104.9849	5
108.6645	7
114.4798	7
115.0017	452
115.2352	4
115.4587	3
115.6876	4
117.0312	17
118.038	6
119.0491	16
121.0271	428
121.1798	4
121.3847	3
121.5585	5
122.03	27
124.4578	9
128.9855	8
132.0187	11
133.0115	441
133.319	4
133.749	4
134.019	8
135.0248	8
142.2027	7
147.0435	21
149.0213	999
149.2081	4
149.3661	5
149.4547	4
149.582	4
149.7286	3
150.0239	101
151.0395	7
163.0349	4
164.045	329
164.6798	4
165.4922	3
179.0678	13
180.0736	10
190.0227	4
193.0143	8
223.0572	912
223.2527	3
223.3681	4
223.4766	5
223.5449	7
223.8019	5
223.9624	4
224.0615	84
224.274	3
225.0609	7
226.2903	4
232.9032	2
303.9408	4
