Mass spectrum: 4-HYDROXYBENZALDEHYDE; LC-ESI-QFT; MS2; CE: 30eV;  [M+H]+
Name: 4-HYDROXYBENZALDEHYDE
Class: NA
Formula: C7H6O2
Exact mass: 122.03678
SMILES: OC1=CC=C(C=O)C=C1
InChI: InChI=1S/C7H6O2/c8-5-6-1-3-7(9)4-2-6/h1-5,9H
Instrument: Q-Exactive Orbitrap, Thermo Scientfic; Ultimate 3000 HPLC, Thermo Scientfic
Instrument type: LC-ESI-QFT
Ms type: MS2
Ion mode: POSITIVE
Ionization: ESI
Collision energy: 30eV
Column name: Acquity CSHC18
Retention time: 4.536 min
Base peak: 123.0441
Precursor m/z: 123.0441
Precursor type: [M+H]+
Precursor intensity: 107
m/z	relative intensity
50.5717	5
51.0236	6
53.208	5
55.055	10
57.0707	16
57.9424	5
58.7326	6
60.998	6
63.7593	5
66.1975	7
66.7594	5
67.0549	62
67.1616	6
75.2283	6
76.1389	6
77.0391	16
79.0549	970
79.3447	5
80.0582	45
81.0705	356
83.8966	6
93.0703	9
95.0497	999
95.0861	80
96.0531	37
102.9651	6
105.034	173
105.0452	116
106.0372	9
106.4899	6
112.2076	6
122.0606	22
123.0444	717
123.0807	50
123.1172	278
123.9644	7
124.0476	67
124.1206	12
125.922	6
126.4667	7
131.8651	6
