Mass spectrum: Scopoletin; LC-ESI-QTOF; MS2; CE: 50eV;  [M-H]-
Name: Scopoletin
Class: Coumarin
Formula: C10H8O4
Exact mass: 192.0423
SMILES: COC1=C(C=C2C(=C1)C=CC(=O)O2)O
InChI: InChI=1S/C10H8O4/c1-13-9-4-6-2-3-10(12)14-8(6)5-7(9)11/h2-5,11H,1H3
Instrument: TIMS-TOF Pro, Bruker Daltonik; Elute UHPLC System, Bruker Daltonik
Instrument type: LC-ESI-QTOF
Ms type: MS2
Ion mode: NEGATIVE
Ionization: ESI
Collision energy: 50eV
Column name: Acquity CSHC18
Retention time: 5.338 min
Base peak: 191.0323
Precursor m/z: 191.0323
Precursor type: [M-H]-
Precursor intensity: 1918.12
m/z	relative intensity
67.0182	36
120.0189	88
128.872	38
148.0159	252
149.0208	48
176.0107	999
177.0162	81
