Mass spectrum: Anthocyanin.A10; LC-ESI-ITFT; MS2; CE: 30;  [M]+
Name: Anthocyanin.A10
Class: NA
Formula: [C58H65O31]+
Exact mass: 1257.3504
SMILES: c1(cc(c2c(c1)[o+]c(c(c2)O[C@@H]1O[C@@H]([C@H]([C@H](O)[C@@H]1O[C@@H]1OC[C@@H](O)[C@H](O)[C@H]1OC(=O)/C=C/c1cc(c(c(c1)OC)O)OC)O)COC(=O)/C=C/c1ccc(cc1)O[C@@H]1O[C@@H]([C@@H](O)[C@H](O)[C@@H]1O)CO)c1ccc(c(c1)O)O)O[C@@H]1O[C@@H]([C@@H](O)[C@@H](O)[C@@H]1O)CO)O
InChI: InChI=1S/C58H64O31/c1-77-34-13-24(14-35(78-2)43(34)68)6-12-41(66)88-53-42(67)31(64)21-80-57(53)89-54-49(74)46(71)39(22-79-40(65)11-5-23-3-8-27(9-4-23)81-55-50(75)47(72)44(69)37(19-59)85-55)87-58(54)84-36-18-28-32(82-52(36)25-7-10-29(62)30(63)15-25)16-26(61)17-33(28)83-56-51(76)48(73)45(70)38(20-60)86-56/h3-18,31,37-39,42,44-51,53-60,64,67,69-76H,19-22H2,1-2H3,(H3-,61,62,63,66,68)/p+1/b11-5+/t31-,37-,38-,39-,42+,44-,45-,46-,47+,48-,49+,50+,51+,53-,54+,55-,56-,57+,58-/m1/s1
Instrument: q exactive focus thermo
Instrument type: LC-ESI-ITFT
Ms type: MS2
Ion mode: POSITIVE
Ionization: ESI
Collision energy: 30
Column name: Acquity CSHC18
Retention time: 6.262 min
Base peak: 1257.3510
Precursor m/z: 1257.3510
Precursor type: [M]+
Precursor intensity: 1749492
m/z	relative intensity
106.0697	14
110.1011	22
110.983	23
111.9765	23
113.0422	32
114.9569	34
115.0469	34
115.9905	40
120.069	43
120.9698	49
123.9547	54
124.0785	69
129.0301	93
139.0272	117
141.9706	123
142.0876	125
143.0641	128
145.0386	134
148.9695	147
149.1146	170
159.0983	178
160.0997	204
162.0771	304
203.9108	347
224.8885	588
265.0714	999
