Mass spectrum: Pipecolic acid; LC-ESI-ITFT; MS2; CE: 60;  [M+H]+
Name: Pipecolic acid
Class: Organic acids and derivatives; Carboxylic acids and derivatives; Amino acids, peptides, and analogues
Formula: C6H11NO2
Exact mass: 129.07898
SMILES: OC(=O)C1CCCCN1
InChI: InChI=1S/C6H11NO2/c8-6(9)5-3-1-2-4-7-5/h5,7H,1-4H2,(H,8,9)
Instrument: Thermo Scientific Q-Exactive Focus
Instrument type: LC-ESI-ITFT
Ms type: MS2
Ion mode: POSITIVE
Ionization: ESI
Collision energy: 60
Column name: Acquity CSHC18
Retention time: 1.749 min
Base peak: 130.08626
Precursor m/z: 130.08626
Precursor type: [M+H]+
m/z	relative intensity
53.5461	65
54.0344	144
56.05	999
63.0784	64
68.0499	159
69.0577	91
74.1743	66
92.5242	86
133.2597	66
138.3198	69
