Mass spectrum: 5-trans U-46619; ESI-TOF; MS2; CE: 0.6458333;  [M+H]+
Name: 5-trans U-46619
Class: NA
Formula: C21H34O4
Exact mass: 350.24571
SMILES: CCCCC[C@H](O)/C=C/[C@H]1C2OCC(C2)[C@@H]1C/C=C/CCCC(O)=O
InChI: InChI=1S/C21H34O4/c1-2-3-6-9-17(22)12-13-19-18(16-14-20(19)25-15-16)10-7-4-5-8-11-21(23)24/h4,7,12-13,16-20,22H,2-3,5-6,8-11,14-15H2,1H3,(H,23,24)/b7-4+,13-12+/t16?,17-,18-,19+,20?/m0/s1
Instrument: waters xevo g2 TOF
Instrument type: ESI-TOF
Ms type: MS2
Ion mode: POSITIVE
Ionization: ESI
Collision energy: 0.6458333
Column name: Acquity CSHC18
Retention time: 4.230 min
Base peak: 351.25371
Precursor m/z: 351.25371
Precursor type: [M+H]+
m/z	relative intensity
69.0331	38
79.0549	200
81.0708	328
83.0864	41
85.0648	22
91.055	453
93.0712	335
95.0867	216
97.1006	23
101.0613	35
105.0713	334
106.073	23
107.0868	225
109.1014	68
111.083	24
117.0715	479
119.088	373
121.1026	209
123.1194	33
128.063	43
129.0713	371
130.0749	52
131.0865	615
132.0901	48
133.1033	256
134.1065	20
135.1178	81
141.0696	81
142.0793	24
143.087	360
144.0913	33
145.1024	424
146.1057	46
147.1176	171
149.133	59
155.0867	170
157.1025	380
158.1029	50
159.1177	164
161.0975	92
163.111	24
167.0854	52
169.1019	195
171.1175	404
172.1206	60
173.0963	38
175.1489	106
177.0908	24
179.1042	17
181.102	178
182.1084	19
184.1252	14
185.1332	304
186.1366	19
187.0779	51
189.1466	34
196.1218	16
197.1337	71
199.1122	223
201.1652	84
203.1444	37
205.1211	24
207.1355	9
209.1334	94
211.1497	33
213.1286	134
215.1776	60
217.1225	45
219.1383	25
223.1578	81
227.1631	41
228.1917	11
229.1946	34
231.1733	35
235.1689	26
237.1739	28
241.1954	41
245.1504	49
255.2091	61
259.2048	33
263.1985	16
265.2158	54
267.2114	23
269.2257	161
279.2092	111
280.2137	26
285.2193	38
289.2146	37
297.2225	371
298.2276	30
301.1788	61
303.2324	100
305.247	9
315.233	999
316.2351	124
317.2409	27
318.1277	328
319.1319	83
321.1348	22
327.1602	29
333.2431	251
334.2427	45
339.25	48
340.2513	13
341.1774	204
342.1802	20
353.1774	45
