Mass spectrum: C22 Ceramide (d18:1/22:0); ESI-TOF; MS2; CE: 0.6458333;  [M+H]+
Name: C22 Ceramide (d18:1/22:0)
Class: NA
Formula: C40H79NO3
Exact mass: 621.60600
SMILES: [H]OC([H])([H])C([H])(N([H])C(=O)C([H])([H])C([H])([H])C([H])([H])C([H])([H])C([H])([H])C([H])([H])C([H])([H])C([H])([H])C([H])([H])C([H])([H])C([H])([H])C([H])([H])C([H])([H])C([H])([H])C([H])([H])C([H])([H])C([H])([H])C([H])([H])C([H])([H])C([H])([H])C([H])([H])[H])C([H])(O[H])C([H])=C([H])C([H])([H])C([H])([H])C([H])([H])C([H])([H])C([H])([H])C([H])([H])C([H])([H])C([H])([H])C([H])([H])C([H])([H])C([H])([H])C([H])([H])C([H])([H])[H]
InChI: InChI=1S/C40H79NO3/c1-3-5-7-9-11-13-15-17-18-19-20-21-22-24-26-28-30-32-34-36-40(44)41-38(37-42)39(43)35-33-31-29-27-25-23-16-14-12-10-8-6-4-2/h33,35,38-39,42-43H,3-32,34,36-37H2,1-2H3,(H,41,44)
Instrument: waters xevo g2 TOF
Instrument type: ESI-TOF
Ms type: MS2
Ion mode: POSITIVE
Ionization: ESI
Collision energy: 0.6458333
Column name: Acquity CSHC18
Retention time: 12.111 min
Base peak: 622.61400
Precursor m/z: 622.61400
Precursor type: [M+H]+
m/z	relative intensity
214.9174	28
252.2691	43
264.2692	511
265.2721	115
282.2797	66
306.7737	33
307.2761	9
307.2776	14
312.7738	31
340.3553	10
378.3043	16
404.3203	16
420.2926	21
574.5907	12
586.5938	34
587.5932	10
604.6045	286
605.6071	125
606.6119	30
622.6152	57
623.619	26
624.621	4
641.5873	61
642.0898	52
642.5894	17
644.5955	999
645.5999	457
646.6029	106
646.6118	9
660.5636	13
706.5659	72
707.5683	31
952.3909	33
952.8943	46
953.3947	34
953.8933	14
