Mass spectrum: TRYPTOPHAN; LC-ESI-QTOF; MS2; CE: 20;  [M-H]-
Name: TRYPTOPHAN
Class: NA
Formula: C11H12N2O2
Exact mass: 204.08988
SMILES: N[C@H](CC1=CNC2=CC=CC=C12)C(O)=O
InChI: InChI=1S/C11H12N2O2/c12-9(11(14)15)5-7-6-13-10-4-2-1-3-8(7)10/h1-4,6,9,13H,5,12H2,(H,14,15)/t9-/m1/s1
Instrument: Agilent 6530Â Q-TOF LC/MS
Instrument type: LC-ESI-QTOF
Ms type: MS2
Ion mode: NEGATIVE
Ionization: ESI
Collision energy: 20
Column name: NA
Retention time: 0.200 min
Base peak: 203.08437
Precursor m/z: 203.08437
Precursor type: [M-H]-
Precursor intensity: 133
m/z	relative intensity
72.0107	116
74.037	136
116.07	231
117.0482	594
142.0746	999
