Mass spectrum: Atropine_acetate; LC-ESI-QTOF; MS2; CE: 35eV;  [M+H]+
Name: Atropine_acetate
Class: Tropane_alkaloid
Formula: C19H25NO4
Exact mass: 331.1784
SMILES: CC(=O)OCC(C1=CC=CC=C1)(C(=O)OC2(CC3(CCC(C2)(N3C)[H])[H])[H])[H]
InChI: InChI=1S/C19H25NO4/c1-13(21)23-12-18(14-6-4-3-5-7-14)19(22)24-17-10-15-8-9-16(11-17)20(15)2/h3-7,15-18H,8-12H2,1-2H3
Instrument: maXis impact HD, Bruker; Dionex 3000, Thermo Scientific
Instrument type: LC-ESI-QTOF
Ms type: MS2
Ion mode: POSITIVE
Ionization: ESI
Collision energy: 35eV
Column name: Acquity CSHC18
Retention time: 10.679 min
Base peak: 332.1834
Precursor m/z: 332.1834
Precursor type: [M+H]+
Precursor intensity: 13782.25
m/z	relative intensity
91.0533	117
99.0423	4
116.9645	7
119.0848	6
124.111	999
129.0684	5
131.0473	5
134.0103	4
136.9495	6
143.9988	4
148.9786	10
150.9689	4
162.9682	5
167.9122	5
185.0973	4
186.9692	5
190.9508	6
195.1132	6
198.1103	8
201.0439	9
203.9349	7
207.9492	4
222.8788	4
226.9527	7
231.8967	5
232.9401	5
238.145	4
245.0691	5
251.1329	5
253.8639	4
303.8675	5
331.1738	5
332.1834	139
