Mass spectrum: Creatinine; LC-ESI-ITFT; MS2; CE: 10;  [M-H]-
Name: Creatinine
Class: Organic acids and derivatives; Carboxylic acids and derivatives; Amino acids, peptides, and analogues
Formula: C4H7N3O
Exact mass: 113.05891
SMILES: CN1CC(=O)NC1=N
InChI: InChI=1S/C4H7N3O/c1-7-2-3(8)6-4(7)5/h2H2,1H3,(H2,5,6,8)
Instrument: Thermo Scientific Q-Exactive Focus
Instrument type: LC-ESI-ITFT
Ms type: MS2
Ion mode: NEGATIVE
Ionization: ESI
Collision energy: 10
Column name: Acquity CSHC18
Retention time: 0.360 min
Base peak: 112.05164
Precursor m/z: 112.05164
Precursor type: [M-H]-
m/z	relative intensity
58.0287	3
68.013	14
68.9945	158
69.0082	5
84.9894	3
110.0348	5
112.0028	38
112.014	3
112.0505	999
112.9844	7
