Mass spectrum: D-fructose 6-phosphate; LC-ESI-QTOF; MS2; CE: 35.00;  [M+H]+
Name: D-fructose 6-phosphate
Class: NA
Formula: C6H13O9P
Exact mass: 260.0297
SMILES: C(C(C(C(C(=O)CO)O)O)O)OP(=O)(O)O
InChI: InChI=1S/C6H13O9P/c7-1-3(8)5(10)6(11)4(9)2-15-16(12,13)14/h4-7,9-11H,1-2H2,(H2,12,13,14)
Instrument: Bruker MicrOTOF-Q
Instrument type: LC-ESI-QTOF
Ms type: MS2
Ion mode: POSITIVE
Ionization: ESI
Collision energy: 35.00
Column name: Acquity CSHC18
Retention time: NA
Base peak: 261.0370
Precursor m/z: 261.0370
Precursor type: [M+H]+
m/z	relative intensity
118.9187	954
120.9211	298
136.9314	999
160.932	611
190.9378	163
