Mass spectrum: 18:1 SM (d18:1/18:1(9Z)); ESI-TOF; MS2; CE: 0.6458333;  [M+H]+
Name: 18:1 SM (d18:1/18:1(9Z))
Class: NA
Formula: C41H81N2O6P
Exact mass: 728.58322
SMILES: [H]OC([H])(C([H])=C([H])C([H])([H])C([H])([H])C([H])([H])C([H])([H])C([H])([H])C([H])([H])C([H])([H])C([H])([H])C([H])([H])C([H])([H])C([H])([H])C([H])([H])C([H])([H])[H])C([H])(N([H])C(=O)C([H])([H])C([H])([H])C([H])([H])C([H])([H])C([H])([H])C([H])([H])C([H])([H])C([H])=C([H])C([H])([H])C([H])([H])C([H])([H])C([H])([H])C([H])([H])C([H])([H])C([H])([H])C([H])([H])[H])C([H])([H])OP(=O)([O-])OC([H])([H])C([H])([H])[N+](C([H])([H])[H])(C([H])([H])[H])C([H])([H])[H]
InChI: InChI=1S/C41H81N2O6P/c1-6-8-10-12-14-16-18-20-21-23-25-27-29-31-33-35-41(45)42-39(38-49-50(46,47)48-37-36-43(3,4)5)40(44)34-32-30-28-26-24-22-19-17-15-13-11-9-7-2/h20-21,32,34,39-40,44H,6-19,22-31,33,35-38H2,1-5H3,(H-,42,45,46,47)
Instrument: waters xevo g2 TOF
Instrument type: ESI-TOF
Ms type: MS2
Ion mode: POSITIVE
Ionization: ESI
Collision energy: 0.6458333
Column name: Acquity CSHC18
Retention time: 10.870 min
Base peak: 729.59122
Precursor m/z: 729.59122
Precursor type: [M+H]+
m/z	relative intensity
73.0297	1
86.0974	11
93.0709	2
95.0861	2
98.9854	1
104.108	42
105.1104	1
107.0857	2
120.5201	1
125.0004	5
135.1164	1
136.9318	4
161.0271	11
162.9474	33
166.0643	2
184.0738	999
185.0777	66
186.0777	10
222.0212	15
223.0245	1
234.6326	5
237.9933	4
243.6381	4
252.1509	6
256.0038	2
264.2682	38
265.2161	9
284.1322	4
284.6327	1
295.1984	2
306.2847	1
320.2278	1
330.1895	1
375.2684	23
375.7696	25
376.2722	3
383.2539	5
384.2726	77
384.7751	18
385.2755	6
386.2698	1
387.1719	4
426.25	5
426.7498	1
434.2354	1
444.2197	4
474.7816	1
475.8052	4
476.3056	2
483.2827	1
483.7889	3
510.5037	2
512.0272	1
528.5147	13
529.5214	2
537.3956	7
541.4066	1
544.8749	1
545.2759	1
546.525	19
547.4054	4
559.3859	2
566.4629	5
567.4649	2
568.5066	8
569.4446	4
570.3844	2
571.4103	1
593.4003	1
603.3562	1
605.3127	2
641.4763	16
641.9775	12
642.4776	5
664.4399	3
675.3402	1
677.3404	1
692.5009	31
693.5017	17
694.5059	3
711.5811	10
712.5793	4
719.0305	15
719.5303	13
720.031	6
729.5908	207
730.5943	100
