Mass spectrum: Spermidine; LC-ESI-ITFT; MS2; CE: 10;  [M+H]+
Name: Spermidine
Class: Organic nitrogen compounds; Organonitrogen compounds; Amines
Formula: C7H19N3
Exact mass: 145.15790
SMILES: NCCCCNCCCN
InChI: InChI=1S/C7H19N3/c8-4-1-2-6-10-7-3-5-9/h10H,1-9H2
Instrument: Thermo Scientific Q-Exactive Focus
Instrument type: LC-ESI-ITFT
Ms type: MS2
Ion mode: POSITIVE
Ionization: ESI
Collision energy: 10
Column name: Acquity CSHC18
Retention time: 0.348 min
Base peak: 146.16518
Precursor m/z: 146.16518
Precursor type: [M+H]+
m/z	relative intensity
58.0657	44
61.8968	1
72.0813	999
75.0921	84
84.0812	29
86.6982	1
112.1124	246
129.1388	195
145.294	1
146.1652	227
