Mass spectrum: (20R,22S,25S)-3beta-Acetoxy-22,26-acetimino-5alpha-cholestan-20-ol; APCI-ITFT; MS2; CE: 70 HCD;  [M+H]+
Name: (20R,22S,25S)-3beta-Acetoxy-22,26-acetimino-5alpha-cholestan-20-ol
Class: NA
Formula: C31H51NO4
Exact mass: 501.38181
SMILES: C[C@H](CN1C(C)=O)CC[C@H]1[C@](C)(O)[C@H]2CC[C@@]3([H])[C@]4([H])CC[C@@]5([H])C[C@@H](OC(C)=O)CC[C@]5(C)[C@@]4([H])CC[C@]23C
InChI: InChI=1S/C31H51NO4/c1-19-7-12-28(32(18-19)20(2)33)31(6,35)27-11-10-25-24-9-8-22-17-23(36-21(3)34)13-15-29(22,4)26(24)14-16-30(25,27)5/h19,22-28,35H,7-18H2,1-6H3/t19-,22-,23-,24-,25-,26-,27-,28-,29-,30-,31+/m0/s1
Instrument: Orbitrap Elite
Instrument type: APCI-ITFT
Ms type: MS2
Ion mode: POSITIVE
Ionization: APCI
Collision energy: 70 HCD
Column name: Acquity CSHC18
Retention time: 0.059 min
Base peak: 502.38790
Precursor m/z: 502.38790
Precursor type: [M+H]+
Precursor intensity: 462732.1
m/z	relative intensity
60.0489	69
68.8946	85
69.8798	81
79.0538	112
81.0702	203
91.0545	176
91.0954	82
93.0694	160
98.0962	999
101.5448	75
105.8708	79
109.1006	89
126.1281	145
127.8366	87
141.907	85
182.1475	73
196.3044	90
209.1705	86
212.6682	79
245.1979	88
278.7352	84
297.7512	81
