Mass spectrum: Methyl benzoate; LC-ESI-ITFT; MS2; CE: 30;  [M+H]+
Name: Methyl benzoate
Class: Benzenoids; Benzene and substituted derivatives; Benzoic acids and derivatives
Formula: C8H8O2
Exact mass: 136.05243
SMILES: COC(=O)C1=CC=CC=C1
InChI: InChI=1S/C8H8O2/c1-10-8(9)7-5-3-2-4-6-7/h2-6H,1H3
Instrument: Thermo Scientific Q-Exactive Focus
Instrument type: LC-ESI-ITFT
Ms type: MS2
Ion mode: POSITIVE
Ionization: ESI
Collision energy: 30
Column name: Acquity CSHC18
Retention time: 0.915 min
Base peak: 137.05971
Precursor m/z: 137.05971
Precursor type: [M+H]+
m/z	relative intensity
53.0392	534
60.5204	748
65.0391	405
67.9354	615
69.5257	519
72.0284	421
91.0546	497
95.0495	999
122.084	356
122.0921	877
