Mass spectrum: Taurodeoxycholic acid; LC-ESI-ITFT; MS2; CE: 60;  [M+H]+
Name: Taurodeoxycholic acid
Class: Lipids and lipid-like molecules; Steroids and steroid derivatives; Bile acids, alcohols and derivatives
Formula: C26H45NO6S
Exact mass: 499.29676
SMILES: [H][C@@]1(CC[C@@]2([H])[C@]3([H])CC[C@]4([H])C[C@H](O)CC[C@]4(C)[C@@]3([H])C[C@H](O)[C@]12C)[C@H](C)CCC(=O)NCCS(O)(=O)=O
InChI: InChI=1S/C26H45NO6S/c1-16(4-9-24(30)27-12-13-34(31,32)33)20-7-8-21-19-6-5-17-14-18(28)10-11-25(17,2)22(19)15-23(29)26(20,21)3/h16-23,28-29H,4-15H2,1-3H3,(H,27,30)(H,31,32,33)/t16-,17-,18-,19+,20-,21+,22+,23+,25+,26-/m1/s1
Instrument: Thermo Scientific Q-Exactive Focus
Instrument type: LC-ESI-ITFT
Ms type: MS2
Ion mode: POSITIVE
Ionization: ESI
Collision energy: 60
Column name: Acquity CSHC18
Retention time: 1.749 min
Base peak: 500.30405
Precursor m/z: 500.30405
Precursor type: [M+H]+
m/z	relative intensity
67.0547	239
81.0702	409
93.0701	346
95.0858	350
105.07	350
107.0857	364
119.0856	347
121.1012	242
126.0219	999
133.1011	299
