Mass spectrum: 8-Hydroxykaempferol; LC-ESI-QTOF; MS2; CE: 50eV;  [M+H]+
Name: 8-Hydroxykaempferol
Class: Flavonol
Formula: C15H10O7
Exact mass: 302.0427
SMILES: C1=CC(=CC=C1C2=C(C(=O)C3=C(O2)C(=C(C=C3O)O)O)O)O
InChI: InChI=1S/C15H10O7/c16-7-3-1-6(2-4-7)14-13(21)12(20)10-8(17)5-9(18)11(19)15(10)22-14/h1-5,16-19,21H
Instrument: TIMS-TOF Pro, Bruker Daltonik; Elute UHPLC System, Bruker Daltonik
Instrument type: LC-ESI-QTOF
Ms type: MS2
Ion mode: POSITIVE
Ionization: ESI
Collision energy: 50eV
Column name: Acquity CSHC18
Retention time: 6.521 min
Base peak: 303.0483
Precursor m/z: 303.0483
Precursor type: [M+H]+
Precursor intensity: 44880.31
m/z	relative intensity
50.5944	3
62.1433	11
79.0483	6
105.033	5
113.0252	6
115.0533	5
121.0292	26
128.0579	6
131.0484	18
153.0171	5
169.0097	20
170.9936	2
229.0227	3
303.0483	999
