Mass spectrum: reabaudioside A; LC-ESI-ITFT; MS2; CE: 0.3;  [M-H]-
Name: reabaudioside A
Class: steviol glycoside
Formula: C44H70O23
Exact mass: 966.4308
SMILES: CC12CCCC(C1CCC34C2CCC(C3)(C(=C)C4)OC5C(C(C(C(O5)CO)O)OC6C(C(C(C(O6)CO)O)O)O)OC7C(C(C(C(O7)CO)O)O)O)(C)C(=O)OC8C(C(C(C(O8)CO)O)O)O
InChI: InChI=1S/C44H70O23/c1-17-11-43-9-5-22-41(2,7-4-8-42(22,3)40(59)66-38-33(58)30(55)26(51)20(14-47)62-38)23(43)6-10-44(17,16-43)67-39-35(65-37-32(57)29(54)25(50)19(13-46)61-37)34(27(52)21(15-48)63-39)64-36-31(56)28(53)24(49)18(12-45)60-36/h18-39,45-58H,1,4-16H2,2-3H3
Instrument: LTQ-Orbitrap XL hybrid mass spectrometer (Thermo Scientific)
Instrument type: LC-ESI-ITFT
Ms type: MS2
Ion mode: NEGATIVE
Ionization: ESI
Collision energy: 0.3
Column name: Acquity CSHC18
Retention time: 9.024 min
Base peak: 965.4215
Precursor m/z: 965.4215
Precursor type: [M-H]-
Precursor intensity: 7404735
m/z	relative intensity
255.0768	171
272.4454	162
279.2991	150
285.1533	146
285.9401	153
287.2202	182
287.2224	189
287.2303	899
287.2398	407
287.2472	367
287.2524	341
287.26	287
287.2705	159
323.8149	267
331.2524	142
336.9034	162
337.4568	156
339.4574	189
402.5616	143
457.1013	169
457.1234	215
478.4764	355
634.4026	157
658.257	221
662.5246	120
689.0067	215
727.1677	118
784.631	215
803.3689	999
804.3358	355
956.5873	165
