Mass spectrum: 3-Hydroxybutyric acid; LC-ESI-ITFT; MS2; CE: 100;  [M-H]-
Name: 3-Hydroxybutyric acid
Class: Organic acids and derivatives; Hydroxy acids and derivatives; Beta hydroxy acids and derivatives
Formula: C4H8O3
Exact mass: 104.04734
SMILES: CC(O)CC(O)=O
InChI: InChI=1S/C4H8O3/c1-3(5)2-4(6)7/h3,5H,2H2,1H3,(H,6,7)
Instrument: Thermo Scientific Q-Exactive Focus
Instrument type: LC-ESI-ITFT
Ms type: MS2
Ion mode: NEGATIVE
Ionization: ESI
Collision energy: 100
Column name: Acquity CSHC18
Retention time: 2.170 min
Base peak: 103.04007
Precursor m/z: 103.04007
Precursor type: [M-H]-
m/z	relative intensity
58.5463	930
79.2138	901
89.8715	907
92.5152	916
92.8766	912
96.2145	986
96.7985	921
110.3732	999
112.4886	915
122.2715	901
