Mass spectrum: Propionylcarnitine; LC-ESI-ITFT; MS2; CE: 10;  [M+H]+
Name: Propionylcarnitine
Class: Lipids and lipid-like molecules; Fatty Acyls; Fatty acid esters
Formula: C10H19NO4
Exact mass: 217.13141
SMILES: CCC(=O)OC(CC([O-])=O)C[N+](C)(C)C
InChI: InChI=1S/C10H19NO4/c1-5-10(14)15-8(6-9(12)13)7-11(2,3)4/h8H,5-7H2,1-4H3
Instrument: Thermo Scientific Q-Exactive Focus
Instrument type: LC-ESI-ITFT
Ms type: MS2
Ion mode: POSITIVE
Ionization: ESI
Collision energy: 10
Column name: Acquity CSHC18
Retention time: 0.350 min
Base peak: 218.13869
Precursor m/z: 218.13869
Precursor type: [M+H]+
m/z	relative intensity
57.034	3
60.0813	128
85.0288	678
144.1018	23
154.7797	1
157.4889	1
159.0651	297
166.2205	1
187.6114	1
218.1385	999
