Mass spectrum: Prostaglandin E2-1-glyceryl ester; ESI-TOF; MS2; CE: 6.0000000;  [M+H]+
Name: Prostaglandin E2-1-glyceryl ester
Class: NA
Formula: C23H38O7
Exact mass: 426.26175
SMILES: CCCCCC(C=CC1C(CC(=O)C1CC=CCCCC(=O)OCC(CO)O)O)O
InChI: InChI=1S/C23H38O7/c1-2-3-6-9-17(25)12-13-20-19(21(27)14-22(20)28)10-7-4-5-8-11-23(29)30-16-18(26)15-24/h4,7,12-13,17-20,22,24-26,28H,2-3,5-6,8-11,14-16H2,1H3
Instrument: waters xevo g2 TOF
Instrument type: ESI-TOF
Ms type: MS2
Ion mode: POSITIVE
Ionization: ESI
Collision energy: 6.0000000
Column name: Acquity CSHC18
Retention time: 3.392 min
Base peak: 427.26975
Precursor m/z: 427.26975
Precursor type: [M+H]+
m/z	relative intensity
98.96	10
177.1652	25
189.0694	15
196.0747	9
207.0999	18
215.1018	162
215.6032	17
224.1061	52
224.6085	27
228.1956	13
229.1934	21
230.2501	17
245.1504	17
247.207	54
257.1861	13
271.2055	28
281.1891	69
290.268	18
299.2013	399
300.2044	80
301.2157	8
317.2116	321
318.2137	62
325.0951	15
335.2211	35
337.2374	21
339.2529	60
365.2338	63
373.2341	313
374.2409	74
388.1317	11
391.2483	999
392.2508	259
393.2535	40
409.261	533
410.213	59
425.1363	18
