Mass spectrum: Fluprostenol isopropyl ester; ESI-TOF; MS2; CE: 0.6458333;  [M+H]+
Name: Fluprostenol isopropyl ester
Class: NA
Formula: C26H35F3O6
Exact mass: 500.23857
SMILES: CC(C)OC(=O)CCCC=CCC1C(CC(C1C=CC(COC2=CC=CC(=C2)C(F)(F)F)O)O)O
InChI: InChI=1S/C26H35F3O6/c1-17(2)35-25(33)11-6-4-3-5-10-21-22(24(32)15-23(21)31)13-12-19(30)16-34-20-9-7-8-18(14-20)26(27,28)29/h3,5,7-9,12-14,17,19,21-24,30-32H,4,6,10-11,15-16H2,1-2H3
Instrument: waters xevo g2 TOF
Instrument type: ESI-TOF
Ms type: MS2
Ion mode: POSITIVE
Ionization: ESI
Collision energy: 0.6458333
Column name: Acquity CSHC18
Retention time: 4.563 min
Base peak: 501.24657
Precursor m/z: 501.24657
Precursor type: [M+H]+
m/z	relative intensity
71.0498	35
79.055	261
81.0709	169
91.0553	634
92.0581	32
93.0707	289
94.0738	15
95.0859	59
101.0604	19
105.0714	999
107.0877	199
113.0611	31
117.0714	572
119.0872	744
121.1009	30
128.063	211
129.0709	409
130.0759	121
131.0858	389
132.0894	30
133.102	307
135.0811	54
141.0712	426
143.0863	466
144.0914	64
145.1021	454
146.1056	38
147.1181	892
153.0695	83
154.0786	70
155.0868	690
157.1023	237
159.082	101
161.1147	149
165.0723	127
166.0783	114
167.0843	102
168.092	60
169.1018	228
170.104	26
171.118	375
172.1229	50
179.0964	146
181.1014	465
182.1056	74
183.1175	734
187.1538	15
189.1284	536
190.1307	39
197.1329	350
199.1122	170
200.1131	21
201.1285	104
205.118	31
207.1377	581
215.1427	72
217.1235	119
225.1284	698
226.1327	118
243.1381	833
244.142	120
249.1856	443
250.1893	49
257.0803	18
259.1686	19
261.1036	110
263.0711	24
279.1582	20
281.0845	351
285.1854	368
286.187	49
288.0503	18
299.0967	107
303.1968	196
304.1985	31
315.0673	74
320.1076	124
321.1603	325
337.1442	12
345.1131	24
360.161	13
378.1362	31
379.1427	12
405.1653	24
413.0682	15
427.0632	13
429.0803	21
464.1252	79
465.2052	62
477.1539	113
479.1356	172
481.1813	517
482.1368	295
483.1432	81
497.1469	970
498.1487	218
502.2511	5
