Mass spectrum: C14 Ceramide (d18:1/14:0); ESI-TOF; MS2; CE: 6.0000000;  [M+H]+
Name: C14 Ceramide (d18:1/14:0)
Class: NA
Formula: C32H63NO3
Exact mass: 509.48079
SMILES: [H]OC([H])([H])C([H])(N([H])C(=O)C([H])([H])C([H])([H])C([H])([H])C([H])([H])C([H])([H])C([H])([H])C([H])([H])C([H])([H])C([H])([H])C([H])([H])C([H])([H])C([H])([H])C([H])([H])[H])C([H])(O[H])C([H])=C([H])C([H])([H])C([H])([H])C([H])([H])C([H])([H])C([H])([H])C([H])([H])C([H])([H])C([H])([H])C([H])([H])C([H])([H])C([H])([H])C([H])([H])C([H])([H])[H]
InChI: InChI=1S/C32H63NO3/c1-3-5-7-9-11-13-15-16-18-19-21-23-25-27-31(35)30(29-34)33-32(36)28-26-24-22-20-17-14-12-10-8-6-4-2/h25,27,30-31,34-35H,3-24,26,28-29H2,1-2H3,(H,33,36)
Instrument: waters xevo g2 TOF
Instrument type: ESI-TOF
Ms type: MS2
Ion mode: POSITIVE
Ionization: ESI
Collision energy: 6.0000000
Column name: Acquity CSHC18
Retention time: 10.301 min
Base peak: 510.48879
Precursor m/z: 510.48879
Precursor type: [M+H]+
m/z	relative intensity
250.7112	34
251.2138	5
256.7115	38
257.214	10
257.7181	2
264.2693	7
265.717	13
266.2007	7
266.7256	4
271.224	3
274.7221	84
275.2237	22
275.7242	4
277.2244	3
282.2799	2
295.2351	6
462.4648	1
474.468	36
475.4702	7
492.4785	999
493.481	378
494.4853	69
495.4849	3
510.4887	369
511.4918	138
