Mass spectrum: 2,5-DIHYDROXYBENZOATE; LC-ESI-QFT; MS2; CE: 30eV;  [M+H]+
Name: 2,5-DIHYDROXYBENZOATE
Class: NA
Formula: C7H6O4
Exact mass: 154.02661
SMILES: OC(=O)C1=CC(O)=CC=C1O
InChI: InChI=1S/C7H6O4/c8-4-1-2-6(9)5(3-4)7(10)11/h1-3,8-9H,(H,10,11)
Instrument: Q-Exactive Orbitrap, Thermo Scientfic; Ultimate 3000 HPLC, Thermo Scientfic
Instrument type: LC-ESI-QFT
Ms type: MS2
Ion mode: POSITIVE
Ionization: ESI
Collision energy: 30eV
Column name: Acquity CSHC18
Retention time: 2.742 min
Base peak: 155.0339
Precursor m/z: 155.0339
Precursor type: [M+H]+
Precursor intensity: 184
m/z	relative intensity
51.9405	2
52.3434	1
53.0392	1
55.9349	8
56.6355	1
57.9187	1
59.6477	1
65.9952	1
67.0547	2
71.163	1
71.6285	1
75.7109	1
77.8944	1
81.034	15
81.0703	3
82.2228	1
88.6048	1
90.8625	1
95.0858	3
97.0649	1
99.0445	1
109.0286	15
109.065	2
109.1016	10
109.4981	1
111.0443	48
114.9717	16
121.0397	6
125.4713	1
127.039	9
130.8882	1
131.9865	11
137.0233	999
137.096	2
138.0266	24
142.9667	1
149.9615	2
154.0262	3
154.9077	12
155.0339	105
155.0701	2
155.1066	3
155.1541	2
156.0367	2
156.0423	6
