Mass spectrum: coniferyl aldehyde; LC-ESI-QTOF; MS2; CE: 15.00;  [M+H]+
Name: coniferyl aldehyde
Class: NA
Formula: C10H10O3
Exact mass: 178.0630
SMILES: COC1=C(C=CC(=C1)C=CC=O)O
InChI: InChI=1S/C10H10O3/c1-13-10-7-8(3-2-6-11)4-5-9(10)12/h2-7,12H,1H3
Instrument: Bruker MicrOTOF-Q
Instrument type: LC-ESI-QTOF
Ms type: MS2
Ion mode: POSITIVE
Ionization: ESI
Collision energy: 15.00
Column name: Acquity CSHC18
Retention time: NA
Base peak: 179.0703
Precursor m/z: 179.0703
Precursor type: [M+H]+
m/z	relative intensity
119.0491	184
119.093	245
146.0265	210
147.0397	560
163.0327	999
