Mass spectrum: Salicortin; LC-ESI-ITFT; MS2; CE: 20/50eV;  [M-H]-
Name: Salicortin
Class: Salicinoid
Formula: C20H24O10
Exact mass: 424.1369
SMILES: C1CC(=O)C(C=C1)(C(=O)OCC2=CC=CC=C2OC3C(C(C(C(O3)CO)O)O)O)O
InChI: InChI=1S/C20H24O10/c21-9-13-15(23)16(24)17(25)18(30-13)29-12-6-2-1-5-11(12)10-28-19(26)20(27)8-4-3-7-14(20)22/h1-2,4-6,8,13,15-18,21,23-25,27H,3,7,9-10H2
Instrument: Bruker timsTOF
Instrument type: LC-ESI-ITFT
Ms type: MS2
Ion mode: NEGATIVE
Ionization: ESI
Collision energy: 20/50eV
Column name: Acquity CSHC18
Retention time: 5.202 min
Base peak: 423.1292
Precursor m/z: 423.1292
Precursor type: [M-H]-
Precursor intensity: 71645.38
m/z	relative intensity
83.0504	429
111.0448	156
121.0285	430
123.0448	999
137.0253	260
155.0347	623
423.1278	536
