Mass spectrum: Putative_Hellebosaponin D; LC-ESI-QTOF; MS2; CE: 20-40eV;  [M+NH4]+
Name: Putative_Hellebosaponin D
Class: Triterpene saponins
Formula: C52H78O25
Exact mass: 1102.4832
SMILES: C=C1COC2(C(COC(C)=O)(C3(C(CC4(C5(CC=C6CC(CC(C6(C)C5(CCC43C)[H])(OC7(C(C(C(CO7)(O)[H])(OC8(C(C(C(CO8)(O)[H])(O)[H])(O)[H])[H])[H])(OC9(C(C(C(C(C)(O9)[H])(OC(C)=O)[H])(OC%10(C(C(CO)(CO%10)O)(O)[H])[H])[H])(O)[H])[H])[H])[H])[H])(O)[H])[H])[H])(O2)[H])[H])[H])C(C1(O)[H])(O)[H]
InChI: InChI=1S/C52H78O25/c1-20-14-70-52(43(63)35(20)59)29(15-66-22(3)54)34-32(77-52)13-28-26-8-7-24-11-25(56)12-33(50(24,6)27(26)9-10-49(28,34)5)73-47-42(40(31(58)17-68-47)74-45-37(61)36(60)30(57)16-67-45)76-46-38(62)41(39(21(2)71-46)72-23(4)55)75-48-44(64)51(65,18-53)19-69-48/h7,21,25-48,53,56-65H,1,8-19H2,2-6H3
Instrument: Impact II, Bruker; Dionex 3000, Thermo Scientific
Instrument type: LC-ESI-QTOF
Ms type: MS2
Ion mode: POSITIVE
Ionization: ESI
Collision energy: 20-40eV
Column name: Acquity CSHC18
Retention time: 11.646 min
Base peak: 1120.5160
Precursor m/z: 1120.5160
Precursor type: [M+NH4]+
Precursor intensity: 8042.5
m/z	relative intensity
105.0434	9
131.0594	16
145.0742	17
163.042	19
201.1442	25
203.1428	25
205.0957	27
303.0522	30
321.0645	38
339.074	41
423.3079	210
425.0709	999
