Mass spectrum: Homocysteine; LC-ESI-ITFT; MS2; CE: 60;  [M+H]+
Name: Homocysteine
Class: Organic acids and derivatives; Carboxylic acids and derivatives; Amino acids, peptides, and analogues
Formula: C4H9NO2S
Exact mass: 135.03540
SMILES: NC(CCS)C(O)=O
InChI: InChI=1S/C4H9NO2S/c5-3(1-2-8)4(6)7/h3,8H,1-2,5H2,(H,6,7)
Instrument: Thermo Scientific Q-Exactive Focus
Instrument type: LC-ESI-ITFT
Ms type: MS2
Ion mode: POSITIVE
Ionization: ESI
Collision energy: 60
Column name: Acquity CSHC18
Retention time: 1.731 min
Base peak: 136.04268
Precursor m/z: 136.04268
Precursor type: [M+H]+
m/z	relative intensity
56.0501	999
57.6958	169
59.967	321
81.7885	194
88.9793	176
92.5224	229
92.5243	320
98.141	169
101.1835	173
105.8674	191
