Mass spectrum: 3-Isobutyl-1-methylxanthine; ESI-TOF; MS2; CE: 6.0000000;  [M+H]+
Name: 3-Isobutyl-1-methylxanthine
Class: NA
Formula: C10H14N4O2
Exact mass: 222.11168
SMILES: CC(C)CN1C2=C(C(=O)N(C1=O)C)NC=N2
InChI: InChI=1S/C10H14N4O2/c1-6(2)4-14-8-7(11-5-12-8)9(15)13(3)10(14)16/h5-6H,4H2,1-3H3,(H,11,12)
Instrument: waters xevo g2 TOF
Instrument type: ESI-TOF
Ms type: MS2
Ion mode: POSITIVE
Ionization: ESI
Collision energy: 6.0000000
Column name: Acquity CSHC18
Retention time: 2.469 min
Base peak: 223.11968
Precursor m/z: 223.11968
Precursor type: [M+H]+
m/z	relative intensity
110.0355	1
113.9644	2
163.9788	1
167.0569	283
168.0594	24
169.0613	1
205.004	1
214.0619	1
223.1658	999
224.1222	525
225.1244	54
226.1276	3
229.1291	1
242.0928	17
242.5951	2
245.1016	304
246.1045	37
247.1049	2
261.039	1
307.0718	13
308.0659	4
322.0372	2
323.0438	2
325.0453	1
352.0638	1
353.1489	41
353.6498	14
354.1073	14
355.1069	3
362.1373	1
451.2434	1
467.2094	33
468.2078	8
469.2046	1
483.1462	3
484.1808	1
498.1445	9
499.1496	10
500.1529	3
501.1514	10
502.1521	2
503.1482	4
516.1516	1
529.1842	28
530.1745	26
531.1758	6
532.1783	1
544.1483	12
545.1536	4
546.167	1
547.1552	1
594.1308	3
705.2861	12
706.294	4
721.259	2
723.2637	4
751.294	10
752.2963	4
