Mass spectrum: Myricetin; LC-ESI-ITFT; MS2; CE: 0.3;  [M+H]+
Name: Myricetin
Class: flavonols
Formula: C15H10O8
Exact mass: 318.0376
SMILES: C1=C(C=C(C(=C1O)O)O)C2=C(C(=O)C3=C(C=C(C=C3O2)O)O)O
InChI: InChI=1S/C15H10O8/c16-6-3-7(17)11-10(4-6)23-15(14(22)13(11)21)5-1-8(18)12(20)9(19)2-5/h1-4,16-20,22H
Instrument: LTQ-Orbitrap XL hybrid mass spectrometer (Thermo Scientific)
Instrument type: LC-ESI-ITFT
Ms type: MS2
Ion mode: POSITIVE
Ionization: ESI
Collision energy: 0.3
Column name: Acquity CSHC18
Retention time: 6.291 min
Base peak: 319.0442
Precursor m/z: 319.0442
Precursor type: [M+H]+
Precursor intensity: 4365154
m/z	relative intensity
76.4702	4
78.5061	4
81.0214	7
109.0276	20
111.0069	15
127.0383	21
137.0225	32
145.0727	4
152.5605	4
153.0176	258
153.054	19
158.1478	4
160.9311	4
165.0176	349
166.0267	14
166.9462	17
174.475	4
177.0542	26
179.0334	55
193.0128	19
195.0282	56
197.3462	5
205.3986	4
207.0281	16
214.1359	5
217.049	51
221.043	15
227.0328	19
229.0483	21
231.0288	17
235.0229	37
235.0602	12
245.0441	328
246.0483	16
249.0407	7
254.3261	4
255.0282	89
263.0547	207
264.0582	5
273.0389	999
274.0421	33
277.0335	9
283.0228	64
287.0872	10
290.0414	166
291.0497	49
301.0336	340
302.0376	22
319.0441	78
