Mass spectrum: PANTOTHENATE; LC-ESI-QTOF; MS2; CE: 40;  [M-H]-
Name: PANTOTHENATE
Class: NA
Formula: C9H17NO5
Exact mass: 219.11067
SMILES: CC(C)(CO)C(O)C(=O)NCCC(O)=O
InChI: InChI=1S/C9H17NO5/c1-9(2,5-11)7(14)8(15)10-4-3-6(12)13/h7,11,14H,3-5H2,1-2H3,(H,10,15)(H,12,13)
Instrument: Agilent 6530Â Q-TOF LC/MS
Instrument type: LC-ESI-QTOF
Ms type: MS2
Ion mode: NEGATIVE
Ionization: ESI
Collision energy: 40
Column name: NA
Retention time: 0.200 min
Base peak: 218.10046
Precursor m/z: 218.10046
Precursor type: [M-H]-
Precursor intensity: 110
m/z	relative intensity
42.0096	125
44.0273	186
59.0129	295
71.0565	559
88.04	981
99.0473	999
