Mass spectrum: 8-Hydroxyguanosine; LC-ESI-QTOF; MS2; CE: -10, -35, -60V;  [M-H]-
Name: 8-Hydroxyguanosine
Class: NA
Formula: C10H13N5O6
Exact mass: 299.0866
SMILES: C(C1C(C(C(O1)N2C3=C(C(=O)N=C(N3)N)NC2=O)O)O)O
InChI: InChI=1S/C10H13N5O6/c11-9-13-6-3(7(19)14-9)12-10(20)15(6)8-5(18)4(17)2(1-16)21-8/h2,4-5,8,16-18H,1H2,(H,12,20)(H3,11,13,14,19)
Instrument: TripleToF 5600; Sciex
Instrument type: LC-ESI-QTOF
Ms type: MS2
Ion mode: NEGATIVE
Ionization: ESI
Collision energy: -10, -35, -60V
Column name: Acquity CSHC18
Retention time: 2.250 min
Base peak: 298.0751
Precursor m/z: 298.0751
Precursor type: [M-H]-
Precursor intensity: 1297.12
m/z	relative intensity
196.9049	999
232.9179	999
255.0791	749
298.0755	749
