Mass spectrum: (S)-Scoulerine; ESI-QTOF; MS2; CE: 1, 35, 60;  [M+H]+
Name: (S)-Scoulerine
Class: Benzylisoquinoline (subclass:Benzophenanthridine) alkaloid
Formula: C19H21NO4
Exact mass: 327.1471
SMILES: COC1=C(C2=C(CC3C4=CC(=C(C=C4CCN3C2)OC)O)C=C1)O
InChI: InChI=1S/C19H21NO4/c1-23-17-4-3-11-7-15-13-9-16(21)18(24-2)8-12(13)5-6-20(15)10-14(11)19(17)22/h3-4,8-9,15,21-22H,5-7,10H2,1-2H3
Instrument: AB Sciex TripleToF 5500
Instrument type: ESI-QTOF
Ms type: MS2
Ion mode: POSITIVE
Ionization: ESI
Collision energy: 1, 35, 60
Column name: Acquity CSHC18
Retention time: 4.721 min
Base peak: 328.1541
Precursor m/z: 328.1541
Precursor type: [M+H]+
Precursor intensity: 1871054
m/z	relative intensity
107.0559	7
118.0531	8
136.0572	10
146.0454	11
148.0604	11
152.0656	12
165.0617	18
178.0787	22
210.0773	23
236.0931	24
237.0768	27
251.0944	37
253.0995	42
268.1066	43
281.0814	45
282.0977	63
311.1187	999
