Mass spectrum: Cysteamine; LC-ESI-ITFT; MS2; CE: 100;  [M+H]+
Name: Cysteamine
Class: Organosulfur compounds; Thiols; Alkylthiols
Formula: C2H7NS
Exact mass: 77.02992
SMILES: NCCS
InChI: InChI=1S/C2H7NS/c3-1-2-4/h4H,1-3H2
Instrument: Thermo Scientific Q-Exactive Focus
Instrument type: LC-ESI-ITFT
Ms type: MS2
Ion mode: POSITIVE
Ionization: ESI
Collision energy: 100
Column name: Acquity CSHC18
Retention time: 2.570 min
Base peak: 78.03720
Precursor m/z: 78.03720
Precursor type: [M+H]+
m/z	relative intensity
54.6909	437
58.9852	447
59.9669	999
64.6986	471
67.7759	425
70.2037	449
77.6497	480
89.4981	426
92.6202	429
96.5006	434
