Mass spectrum: L-Phenylalanine, 23; LC-ESI-QTOF; MS2; CE: -10, -35, -60V;  [M-H]-
Name: L-Phenylalanine, 23
Class: NA
Formula: C9H11NO2
Exact mass: 165.0790
SMILES: C1=CC=C(C=C1)CC(C(=O)[O-])[NH3+]
InChI: InChI=1S/C9H11NO2/c10-8(9(11)12)6-7-4-2-1-3-5-7/h1-5,8H,6,10H2,(H,11,12)
Instrument: TripleToF 5600; Sciex
Instrument type: LC-ESI-QTOF
Ms type: MS2
Ion mode: NEGATIVE
Ionization: ESI
Collision energy: -10, -35, -60V
Column name: Acquity CSHC18
Retention time: 1.943 min
Base peak: 164.0732
Precursor m/z: 164.0732
Precursor type: [M-H]-
Precursor intensity: 156976.9
m/z	relative intensity
76.9685	6
103.0383	79
141.0197	13
146.0597	8
147.0475	404
148.0576	42
155.0047	20
163.5577	19
164.0727	999
