Mass spectrum: Homocysteine; LC-ESI-ITFT; MS2; CE: 30;  [M+H]+
Name: Homocysteine
Class: Organic acids and derivatives; Carboxylic acids and derivatives; Amino acids, peptides, and analogues
Formula: C4H9NO2S
Exact mass: 135.03540
SMILES: NC(CCS)C(O)=O
InChI: InChI=1S/C4H9NO2S/c5-3(1-2-8)4(6)7/h3,8H,1-2,5H2,(H,6,7)
Instrument: Thermo Scientific Q-Exactive Focus
Instrument type: LC-ESI-ITFT
Ms type: MS2
Ion mode: POSITIVE
Ionization: ESI
Collision energy: 30
Column name: Acquity CSHC18
Retention time: 0.914 min
Base peak: 136.04268
Precursor m/z: 136.04268
Precursor type: [M+H]+
m/z	relative intensity
56.0501	999
60.5204	17
69.5257	10
72.0284	9
73.0112	158
90.0376	29
91.0546	10
92.5241	15
121.0888	29
128.684	8
