Mass spectrum: Prostaglandin F1-alpha Alcohol; ESI-TOF; MS2; CE: 0.6458333;  [M+H]+
Name: Prostaglandin F1-alpha Alcohol
Class: NA
Formula: C20H38O4
Exact mass: 342.27701
SMILES: CCCCCC(C=CC1C(CC(C1CCCCCCCO)O)O)O
InChI: InChI=1S/C20H38O4/c1-2-3-7-10-16(22)12-13-18-17(19(23)15-20(18)24)11-8-5-4-6-9-14-21/h12-13,16-24H,2-11,14-15H2,1H3
Instrument: waters xevo g2 TOF
Instrument type: ESI-TOF
Ms type: MS2
Ion mode: POSITIVE
Ionization: ESI
Collision energy: 0.6458333
Column name: Acquity CSHC18
Retention time: 3.761 min
Base peak: 343.28501
Precursor m/z: 343.28501
Precursor type: [M+H]+
m/z	relative intensity
67.0543	236
79.0544	264
81.0701	684
85.0662	50
91.0554	468
93.0707	557
95.0873	756
97.1017	154
98.971	17
105.0711	614
106.0758	43
107.0871	423
109.1025	475
111.0796	34
113.0951	22
117.0722	176
119.0868	552
121.1025	465
122.1033	24
123.0815	38
125.0971	104
131.087	490
133.1024	497
135.1176	298
136.1186	17
137.1349	47
145.1022	329
147.1171	280
148.1173	19
149.1332	219
159.1177	132
161.1335	347
163.1492	152
173.1322	167
175.1487	251
185.132	18
187.1482	179
189.1638	214
191.1643	21
193.1645	9
201.1662	105
203.1804	56
207.1741	38
211.0406	142
219.1708	25
233.1898	42
245.2268	83
247.207	19
263.237	385
271.242	70
272.2407	12
281.2481	300
287.2405	40
289.2532	998
290.2559	176
295.1189	14
299.1685	164
301.2003	719
302.189	143
307.2633	262
308.267	47
309.1728	128
319.1925	999
320.1989	167
323.258	8
325.2752	25
331.2822	30
332.1508	26
333.1646	55
335.1657	814
336.1707	207
339.1655	27
344.2455	151
344.7475	61
