Mass spectrum: 1-METHYLADENOSINE; LC-ESI-QFT; MS2; CE: 30eV;  [M+H]+
Name: 1-METHYLADENOSINE
Class: NA
Formula: C11H15N5O4
Exact mass: 281.11240
SMILES: CN1C=NC2=C(N=CN2[C@@H]2O[C@H](CO)[C@@H](O)[C@H]2O)C1=N
InChI: InChI=1S/C11H15N5O4/c1-15-3-14-10-6(9(15)12)13-4-16(10)11-8(19)7(18)5(2-17)20-11/h3-5,7-8,11-12,17-19H,2H2,1H3/t5-,7-,8-,11-/m1/s1
Instrument: Q-Exactive Orbitrap, Thermo Scientfic; Ultimate 3000 HPLC, Thermo Scientfic
Instrument type: LC-ESI-QFT
Ms type: MS2
Ion mode: POSITIVE
Ionization: ESI
Collision energy: 30eV
Column name: Acquity CSHC18
Retention time: 2.555 min
Base peak: 282.1197
Precursor m/z: 282.1197
Precursor type: [M+H]+
Precursor intensity: 167
m/z	relative intensity
55.0187	23
55.0296	2
57.0343	64
57.476	2
59.05	4
61.0291	7
69.0343	22
71.0135	7
72.0558	2
73.0291	35
77.2566	3
85.0291	57
87.0448	16
97.029	17
100.0797	2
103.0396	15
115.0395	53
123.0669	3
123.2399	3
130.2996	2
130.4115	3
130.7331	3
133.0499	79
146.8541	2
151.0748	67
151.0811	222
168.2875	3
192.0884	22
216.0885	4
258.8356	3
262.2673	3
282.1202	999
283.1239	36
