Mass spectrum: Fructose-6-phosphate; LC-ESI-QTOF; MS2; CE: 15.00;  [M+Na]+
Name: Fructose-6-phosphate
Class: NA
Formula: C6H13O9P
Exact mass: 260.0297
SMILES: C(C(C(C(C(=O)CO)O)O)O)OP(=O)(O)O
InChI: InChI=1S/C6H13O9P/c7-1-3(8)5(10)6(11)4(9)2-15-16(12,13)14/h4-7,9-11H,1-2H2,(H2,12,13,14)
Instrument: Bruker MicrOTOF-Q
Instrument type: LC-ESI-QTOF
Ms type: MS2
Ion mode: POSITIVE
Ionization: ESI
Collision energy: 15.00
Column name: Acquity CSHC18
Retention time: NA
Base peak: 283.0189
Precursor m/z: 283.0189
Precursor type: [M+Na]+
m/z	relative intensity
167.033	26
174.9767	33
185.0423	49
192.9867	56
203.0528	63
228.9876	90
246.9973	127
265.0082	189
266.013	394
283.0192	898
284.0215	999
