Mass spectrum: 4-Hydroxybenzoic acid; LC-ESI-ITFT; MS2; CE: 30;  [M-H]-
Name: 4-Hydroxybenzoic acid
Class: Benzenoids; Benzene and substituted derivatives; Benzoic acids and derivatives
Formula: C7H6O3
Exact mass: 138.03169
SMILES: OC(=O)C1=CC=C(O)C=C1
InChI: InChI=1S/C7H6O3/c8-6-3-1-5(2-4-6)7(9)10/h1-4,8H,(H,9,10)
Instrument: Thermo Scientific Q-Exactive Focus
Instrument type: LC-ESI-ITFT
Ms type: MS2
Ion mode: NEGATIVE
Ionization: ESI
Collision energy: 30
Column name: Acquity CSHC18
Retention time: 0.925 min
Base peak: 137.02441
Precursor m/z: 137.02441
Precursor type: [M-H]-
m/z	relative intensity
65.0385	135
75.0228	8
93.0334	999
98.722	1
109.4255	1
112.3521	2
117.8216	1
123.8895	2
126.1014	1
155.5215	2
