Mass spectrum: 1-Methylindole-3-carboxylic acid (1Me-I3COOH); LC-ESI-QTOF; MS2; CE: 15.00;  [M-H]-
Name: 1-Methylindole-3-carboxylic acid (1Me-I3COOH)
Class: NA
Formula: C10H9NO2
Exact mass: 175.0633
SMILES: CN1C=C(C2=CC=CC=C21)C(=O)O
InChI: InChI=1S/C10H9NO2/c1-11-6-8(10(12)13)7-4-2-3-5-9(7)11/h2-6H,1H3,(H,12,13)
Instrument: Bruker MicrOTOF-Q
Instrument type: LC-ESI-QTOF
Ms type: MS2
Ion mode: NEGATIVE
Ionization: ESI
Collision energy: 15.00
Column name: Acquity CSHC18
Retention time: NA
Base peak: 174.0560
Precursor m/z: 174.0560
Precursor type: [M-H]-
m/z	relative intensity
45.2	34
45.88	52
46.5967	55
48.6792	52
50.35	52
50.91	47
51.68	69
53.0467	53
54.685	39
56.065	45
58.37	43
59.67	69
61.19	43
61.97	78
62.61	43
63.27	52
64.94	43
65.5767	57
66.752	52
67.99	78
68.43	60
70.078	59
71.28	43
71.82	86
72.27	43
73.3367	57
74.678	48
76.15	60
76.61	60
77.24	60
78.34	43
78.91	43
79.9	41
82.12	43
82.92	52
84.09	78
85.81	34
87.21	60
87.965	43
88.76	52
89.5	52
89.95	34
90.505	47
91.24	34
92.1167	40
93.04	69
94.475	43
95.5733	60
96.67	78
97.08	43
98.69	69
99.63	52
100.84	52
101.78	60
102.77	43
103.21	60
103.9467	60
104.95	60
106.43	43
107.31	60
108.15	52
109.265	56
109.78	43
111.22	43
112.39	52
113.98	43
114.99	95
116.05	495
116.9275	62
118.3167	49
121.25	60
122.4133	52
123.3	52
124.6833	46
126.005	47
126.865	43
128.0482	597
130.0291	873
131.07	999
131.8325	62
132.53	34
133.74	52
136.65	43
144.04	112
144.63	34
146.07	165
158.99	69
160.31	43
168.85	52
171.4	52
172.04	364
173.215	65
174.02	260
175.06	95
182.52	60
205.81	60
237.34	52
321.87	34
323.9	43
333.25	43
365.18	34
386.33	43
409.55	60
453.33	52
457.25	34
519.81	52
584.28	43
589.93	34
601.44	43
653.28	34
684.65	52
685.56	34
691.07	43
761.56	34
810.28	43
853.35	52
976.05	60
998.22	52
