Mass spectrum: L-Norleucine; ESI-TOF; MS2; CE: 0.6458333;  [M+H]+
Name: L-Norleucine
Class: NA
Formula: C6H13NO2
Exact mass: 131.09463
SMILES: CCCCC(N)C(O)=O
InChI: InChI=1S/C6H13NO2/c1-2-3-4-5(7)6(8)9/h5H,2-4,7H2,1H3,(H,8,9)
Instrument: waters xevo g2 TOF
Instrument type: ESI-TOF
Ms type: MS2
Ion mode: POSITIVE
Ionization: ESI
Collision energy: 0.6458333
Column name: Acquity CSHC18
Retention time: 0.880 min
Base peak: 132.10263
Precursor m/z: 132.10263
Precursor type: [M+H]+
m/z	relative intensity
86.0974	999
86.0975	550
113.9644	491
113.9646	364
113.965	474
131.9512	9
131.9514	9
131.9516	9
132.1026	9
132.1029	9
133.106	9
133.1061	9
137.9884	9
149.9611	9
149.9616	9
149.962	9
191.0237	9
