Mass spectrum: D-pantothenic acid; LC-ESI-QTOF; MS2; CE: 15;  [M-H]-
Name: D-pantothenic acid
Class: NA
Formula: C9H17NO5
Exact mass: 219.1107
SMILES: CC(C)(CO)C(C(=O)NCCC(=O)O)O
InChI: InChI=1S/C9H17NO5/c1-9(2,5-11)7(14)8(15)10-4-3-6(12)13/h7,11,14H,3-5H2,1-2H3,(H,10,15)(H,12,13)
Instrument: Bruker MicrOTOF-Q
Instrument type: LC-ESI-QTOF
Ms type: MS2
Ion mode: NEGATIVE
Ionization: ESI
Collision energy: 15
Column name: Acquity CSHC18
Retention time: NA
Base peak: 218.1034
Precursor m/z: 218.1034
Precursor type: [M-H]-
m/z	relative intensity
47.4177	30
49.5935	38
50.0537	36
51.8076	33
57.1942	31
59.6648	29
63.5318	34
63.9638	29
64.2734	27
68.0749	28
71.7971	22
71.953	29
74.7214	25
77.9891	33
81.3632	19
82.7892	33
88.0413	117
88.2095	30
90.4049	36
90.5754	34
93.4019	21
98.7302	37
99.0458	58
103.9028	33
106.3307	34
116.0756	108
117.0728	41
128.4807	22
129.4126	35
132.5099	24
143.0781	33
145.5564	45
145.9762	18
146.0816	999
146.19	21
147.0857	129
174.0614	23
191.1435	18
218.093	54
230.9471	22
273.9711	26
294.3986	27
369.0667	22
444.3358	22
511.7268	27
539.5024	28
605.4964	22
646.1827	24
654.4889	25
666.3499	18
674.9369	23
692.9855	22
894.0692	22
895.4945	19
961.2048	25
988.2085	23
