Mass spectrum: kaempferol 3-O-sophoroside; LC-ESI-ITFT; MS2; CE: 0.3;  [M-H]-
Name: kaempferol 3-O-sophoroside
Class: flavonol glycosides
Formula: C27H30O16
Exact mass: 610.1534
SMILES: C1=CC(=CC=C1C2=C(C(=O)C3=C(C=C(C=C3O2)O)O)OC4C(C(C(C(O4)CO)O)O)OC5C(C(C(C(O5)CO)O)O)O)O
InChI: InChI=1S/C27H30O16/c28-7-14-17(33)20(36)22(38)26(40-14)43-25-21(37)18(34)15(8-29)41-27(25)42-24-19(35)16-12(32)5-11(31)6-13(16)39-23(24)9-1-3-10(30)4-2-9/h1-6,14-15,17-18,20-22,25-34,36-38H,7-8H2
Instrument: LTQ-Orbitrap XL hybrid mass spectrometer (Thermo Scientific)
Instrument type: LC-ESI-ITFT
Ms type: MS2
Ion mode: NEGATIVE
Ionization: ESI
Collision energy: 0.3
Column name: Acquity CSHC18
Retention time: 4.783 min
Base peak: 609.1448
Precursor m/z: 609.1448
Precursor type: [M-H]-
Precursor intensity: 23853960
m/z	relative intensity
155.156	13
156.3668	13
158.8474	14
159.4772	12
162.6768	13
173.7127	12
225.0211	12
255.03	122
256.0358	18
257.0454	98
281.0464	27
284.0324	565
285.0397	941
286.0429	92
309.0398	63
327.0503	103
339.0497	34
351.0527	25
369.0735	17
381.0598	23
388.3699	14
393.061	38
411.0748	28
429.0821	999
430.086	155
447.0924	114
448.0969	19
461.1065	25
489.1023	45
