Mass spectrum: 6-HYDROXYDOPAMINE; LC-ESI-QFT; MS2; CE: 30eV;  [M+H]+
Name: 6-HYDROXYDOPAMINE
Class: NA
Formula: C8H11NO3
Exact mass: 169.07389
SMILES: NCCC1=C(O)C=C(O)C(O)=C1
InChI: InChI=1S/C8H11NO3/c9-2-1-5-3-7(11)8(12)4-6(5)10/h3-4,10-12H,1-2,9H2
Instrument: Q-Exactive Orbitrap, Thermo Scientfic; Ultimate 3000 HPLC, Thermo Scientfic
Instrument type: LC-ESI-QFT
Ms type: MS2
Ion mode: POSITIVE
Ionization: ESI
Collision energy: 30eV
Column name: Acquity CSHC18
Retention time: 0.781 min
Base peak: 170.0812
Precursor m/z: 170.0812
Precursor type: [M+H]+
Precursor intensity: 178
m/z	relative intensity
50.3333	1
51.3502	1
51.4787	1
52.1841	1
52.3623	1
55.0551	1
62.2942	2
71.0613	2
72.0452	16
73.8149	2
79.055	2
83.0499	11
83.0862	3
89.0717	36
89.5314	2
92.3631	2
94.4149	1
95.0497	2
101.9523	2
107.0496	16
107.4065	2
109.0649	2
110.7428	2
123.2282	3
135.0445	16
137.8444	2
140.0472	11
141.0505	3
142.9787	23
147.9576	3
149.5442	2
152.0424	9
152.0477	33
153.0551	999
154.0584	58
157.1765	2
170.0816	26
170.0969	31
170.118	12
170.9736	31
171.1496	72
