Mass spectrum: 3-DEHYDROSHIKIMATE; LC-ESI-QTOF; MS2; CE: 20;  [M-H]-
Name: 3-DEHYDROSHIKIMATE
Class: NA
Formula: C7H8O5
Exact mass: 172.03717
SMILES: O[C@@H]1CC(=CC(=O)[C@H]1O)C(O)=O
InChI: InChI=1S/C7H8O5/c8-4-1-3(7(11)12)2-5(9)6(4)10/h1,5-6,9-10H,2H2,(H,11,12)/t5-,6-/m1/s1
Instrument: Agilent 6530Â Q-TOF LC/MS
Instrument type: LC-ESI-QTOF
Ms type: MS2
Ion mode: NEGATIVE
Ionization: ESI
Collision energy: 20
Column name: NA
Retention time: 0.200 min
Base peak: 171.03404
Precursor m/z: 171.03404
Precursor type: [M-H]-
Precursor intensity: 192
m/z	relative intensity
41.0089	101
53.051	147
65.0327	160
67.0232	165
69.0404	167
81.0471	187
91.0265	314
108.042	321
109.0517	596
127.0476	999
