Mass spectrum: Catechol; LC-ESI-QTOF; MS2; CE: 15.00;  [M-H]-
Name: Catechol
Class: NA
Formula: C6H6O2
Exact mass: 110.0368
SMILES: C1=CC=C(C(=C1)O)O
InChI: InChI=1S/C6H6O2/c7-5-3-1-2-4-6(5)8/h1-4,7-8H
Instrument: Bruker MicrOTOF-Q
Instrument type: LC-ESI-QTOF
Ms type: MS2
Ion mode: NEGATIVE
Ionization: ESI
Collision energy: 15.00
Column name: Acquity CSHC18
Retention time: NA
Base peak: 109.0295
Precursor m/z: 109.0295
Precursor type: [M-H]-
m/z	relative intensity
44.9561	43
46.2299	28
47.8333	47
49.4781	40
50.6484	43
51.9147	32
53.3313	32
54.8594	38
55.7703	39
57.2395	42
58.7255	39
60.3229	42
61.5369	53
62.5349	39
63.6072	43
64.3463	40
65.1988	64
66.0984	45
67.0097	37
68.9445	38
70.975	41
72.2443	48
72.9405	39
74.4575	44
75.9004	36
77.5744	42
78.8644	43
80.1082	40
81.0128	41
82.6355	40
84.2155	30
85.4499	43
86.7009	37
87.8119	43
88.6409	28
89.3245	35
90.2579	55
91.0401	111
93.2645	42
94.3213	48
96.0267	49
97.4211	47
98.1019	39
99.1645	35
101.0939	34
101.904	42
103.2906	33
104.7051	40
105.2579	39
105.7846	36
108.4092	999
110.5611	69
112.674	28
113.9406	22
126.0567	25
134.6673	27
138.1771	32
157.1941	42
167.0685	50
200.5244	53
215.2837	22
255.0375	25
259.1046	24
264.1846	35
282.3832	47
358.011	40
437.8316	24
500.9546	35
520.2135	28
538.6991	27
582.3957	37
627.3792	47
672.6246	24
692.0742	28
765.2355	43
765.8664	40
769.9813	24
