Mass spectrum: DIHYDROBIOPTERIN; LC-ESI-QFT; MS2; CE: 30eV;  [M-H]-
Name: DIHYDROBIOPTERIN
Class: NA
Formula: C9H13N5O3
Exact mass: 239.10184
SMILES: CC(C(C1=NC2=C(NC1)NC(=NC2=O)N)O)O
InChI: InChI=1S/C9H13N5O3/c1-3(15)6(16)4-2-11-7-5(12-4)8(17)14-9(10)13-7/h3,6,15-16H,2H2,1H3,(H4,10,11,13,14,17)
Instrument: Q-Exactive Orbitrap, Thermo Scientfic; Ultimate 3000 HPLC, Thermo Scientfic
Instrument type: LC-ESI-QFT
Ms type: MS2
Ion mode: NEGATIVE
Ionization: ESI
Collision energy: 30eV
Column name: Acquity CSHC18
Retention time: 0.931 min
Base peak: 238.0946
Precursor m/z: 238.0946
Precursor type: [M-H]-
Precursor intensity: 186
m/z	relative intensity
63.3573	48
66.6427	47
73.5727	51
78.4728	54
84.6442	68
101.9232	67
101.9396	98
129.7079	74
130.7379	52
137.4155	56
145.9294	63
147.934	100
149.927	76
151.0611	108
166.0724	393
176.0567	635
193.0556	248
193.2245	57
194.0674	999
195.0709	65
245.5476	54
