Mass spectrum: Dibenzoylmethane; LC-ESI-QTOF; MS2; CE: 15.00;  [M+H]+
Name: Dibenzoylmethane
Class: NA
Formula: C15H12O2
Exact mass: 224.0837
SMILES: C1=CC=C(C=C1)C(=O)CC(=O)C2=CC=CC=C2
InChI: InChI=1S/C15H12O2/c16-14(12-7-3-1-4-8-12)11-15(17)13-9-5-2-6-10-13/h1-10H,11H2
Instrument: Bruker MicrOTOF-Q
Instrument type: LC-ESI-QTOF
Ms type: MS2
Ion mode: POSITIVE
Ionization: ESI
Collision energy: 15.00
Column name: Acquity CSHC18
Retention time: NA
Base peak: 225.0910
Precursor m/z: 225.0910
Precursor type: [M+H]+
m/z	relative intensity
105.0306	25
147.0426	60
148.046	150
225.0902	704
226.0938	999
