Mass spectrum: 1-arachidoyl-2-hydroxy-sn-glycero-3-phosphocholine; ESI-TOF; MS2; CE: 0.6458333;  [M+H]+
Name: 1-arachidoyl-2-hydroxy-sn-glycero-3-phosphocholine
Class: NA
Formula: C28H58NO7P
Exact mass: 551.39509
SMILES: [H]OC([H])(C([H])([H])OC(=O)C([H])([H])C([H])([H])C([H])([H])C([H])([H])C([H])([H])C([H])([H])C([H])([H])C([H])([H])C([H])([H])C([H])([H])C([H])([H])C([H])([H])C([H])([H])C([H])([H])C([H])([H])C([H])([H])C([H])([H])C([H])([H])C([H])([H])[H])C([H])([H])OP(=O)([O-])OC([H])([H])C([H])([H])[N+](C([H])([H])[H])(C([H])([H])[H])C([H])([H])[H]
InChI: InChI=1S/C28H58NO7P/c1-5-6-7-8-9-10-11-12-13-14-15-16-17-18-19-20-21-22-28(31)34-25-27(30)26-36-37(32,33)35-24-23-29(2,3)4/h27,30H,5-26H2,1-4H3
Instrument: waters xevo g2 TOF
Instrument type: ESI-TOF
Ms type: MS2
Ion mode: POSITIVE
Ionization: ESI
Collision energy: 0.6458333
Column name: Acquity CSHC18
Retention time: 8.198 min
Base peak: 552.40309
Precursor m/z: 552.40309
Precursor type: [M+H]+
m/z	relative intensity
86.0971	71
102.092	20
104.1078	999
105.1104	57
112.9917	57
120.5188	33
125.0003	31
129.5251	52
148.5328	170
157.5377	44
162.948	44
184.0734	957
185.0766	59
192.9579	29
237.9914	20
240.0996	24
258.1109	18
286.6743	27
287.1723	6
295.6802	37
351.2576	74
369.3356	32
487.2482	32
515.3084	177
516.3151	50
534.3915	248
535.3912	75
538.7962	16
552.4026	709
553.406	225
554.4096	41
555.4111	6
571.3757	52
571.8781	32
572.3771	18
574.3851	165
575.3862	50
576.3872	9
590.3506	17
636.353	7
847.0712	10
847.5754	7
1125.7766	36
1126.7806	21
1156.7071	27
