Mass spectrum: L-Leucine; LC-ESI-ITFT; MS2; CE: 10;  [M+H]+
Name: L-Leucine
Class: Organic acids and derivatives; Carboxylic acids and derivatives; Amino acids, peptides, and analogues
Formula: C6H13NO2
Exact mass: 131.09463
SMILES: CC(C)C[C@H](N)C(O)=O
InChI: InChI=1S/C6H13NO2/c1-4(2)3-5(7)6(8)9/h4-5H,3,7H2,1-2H3,(H,8,9)/t5-/m0/s1
Instrument: Thermo Scientific Q-Exactive Focus
Instrument type: LC-ESI-ITFT
Ms type: MS2
Ion mode: POSITIVE
Ionization: ESI
Collision energy: 10
Column name: Acquity CSHC18
Retention time: 0.348 min
Base peak: 132.10191
Precursor m/z: 132.10191
Precursor type: [M+H]+
m/z	relative intensity
69.0704	3
86.0969	999
88.0046	2
89.0023	3
97.0099	2
98.0076	3
99.5126	2
100.5103	4
106.8772	2
132.1019	22
