Mass spectrum: Dihydroquercetin; LC-ESI-QTOF; MS2; CE: 50eV;  [M-H2O-H]-
Name: Dihydroquercetin
Class: Flavanonol
Formula: C15H12O7
Exact mass: 304.0583
SMILES: C1=CC(=C(C=C1C2C(C(=O)C3=C(C=C(C=C3O2)O)O)O)O)O
InChI: InChI=1S/C15H12O7/c16-7-4-10(19)12-11(5-7)22-15(14(21)13(12)20)6-1-2-8(17)9(18)3-6/h1-5,14-19,21H
Instrument: TIMS-TOF Pro, Bruker Daltonik; Elute UHPLC System, Bruker Daltonik
Instrument type: LC-ESI-QTOF
Ms type: MS2
Ion mode: NEGATIVE
Ionization: ESI
Collision energy: 50eV
Column name: Acquity CSHC18
Retention time: 5.432 min
Base peak: 285.0353
Precursor m/z: 285.0353
Precursor type: [M-H2O-H]-
Precursor intensity: 5739
m/z	relative intensity
41.0025	214
74.1925	87
101.0387	74
115.0508	73
143.0463	60
143.7657	100
145.0257	309
147.0416	191
174.0356	101
176.2643	37
199.0364	261
201.9902	43
217.0462	218
285.0353	999
