Mass spectrum: C18:1 Lyso PAF; ESI-TOF; MS2; CE: 0.6458333;  [M+H]+
Name: C18:1 Lyso PAF
Class: NA
Formula: C26H54NO6P
Exact mass: 507.36888
SMILES: [H]OC([H])(C([H])([H])OC([H])([H])C([H])([H])C([H])([H])C([H])([H])C([H])([H])C([H])([H])C([H])([H])C([H])([H])C([H])=C([H])C([H])([H])C([H])([H])C([H])([H])C([H])([H])C([H])([H])C([H])([H])C([H])([H])C([H])([H])[H])C([H])([H])OP(=O)([O-])OC([H])([H])C([H])([H])[N+](C([H])([H])[H])(C([H])([H])[H])C([H])([H])[H]
InChI: InChI=1S/C26H54NO6P/c1-5-6-7-8-9-10-11-12-13-14-15-16-17-18-19-20-22-31-24-26(28)25-33-34(29,30)32-23-21-27(2,3)4/h12-13,26,28H,5-11,14-25H2,1-4H3
Instrument: waters xevo g2 TOF
Instrument type: ESI-TOF
Ms type: MS2
Ion mode: POSITIVE
Ionization: ESI
Collision energy: 0.6458333
Column name: Acquity CSHC18
Retention time: 7.752 min
Base peak: 508.37688
Precursor m/z: 508.37688
Precursor type: [M+H]+
m/z	relative intensity
69.0708	6
83.0864	6
86.0974	55
97.1018	4
104.1078	999
105.1109	59
111.3168	3
112.9919	7
120.5197	22
125.0006	15
129.5251	37
136.9319	5
138.5306	4
148.5329	10
157.5382	3
162.9474	12
166.063	3
184.074	131
185.0778	4
192.9586	21
208.0063	3
245.6539	4
273.6665	19
274.1683	10
326.0068	3
335.6639	2
443.2238	14
444.2276	4
471.2849	105
472.2876	28
487.2505	10
490.3649	29
491.3689	6
494.7726	3
497.8123	14
498.316	6
508.3761	386
509.3805	118
