Mass spectrum: Amentoflavone; LC-ESI-QFT; MS2; CE: 15,30,45 (NCE);  [M-H]-
Name: Amentoflavone
Class: NA
Formula: C30H18O10
Exact mass: 538.0900
SMILES: OC1=CC=C(C=C1)C1=CC(=O)C2=C(O)C=C(O)C(=C2O1)C1=C(O)C=CC(=C1)C1=CC(=O)C2=C(O)C=C(O)C=C2O1
InChI: InChI=1S/C30H18O10/c31-15-4-1-13(2-5-15)24-12-23(38)29-21(36)10-20(35)27(30(29)40-24)17-7-14(3-6-18(17)33)25-11-22(37)28-19(34)8-16(32)9-26(28)39-25/h1-12,31-36H
Instrument: QE Focus, Thermo Scientfic; UPLC I-Class, Waters
Instrument type: LC-ESI-QFT
Ms type: MS2
Ion mode: NEGATIVE
Ionization: ESI
Collision energy: 15,30,45 (NCE)
Column name: Acquity CSHC18
Retention time: 2.763 min
Base peak: 537.0829
Precursor m/z: 537.0829
Precursor type: [M-H]-
Precursor intensity: 128899000
m/z	relative intensity
93.0332	239
156.6333	196
307.0622	999
333.0427	757
