Mass spectrum: Hippuric acid; LC-ESI-ITFT; MS2; CE: 20;  [M-H]-
Name: Hippuric acid
Class: Benzenoids; Benzene and substituted derivatives; Benzoic acids and derivatives
Formula: C9H9NO3
Exact mass: 179.05824
SMILES: OC(=O)CNC(=O)C1=CC=CC=C1
InChI: InChI=1S/C9H9NO3/c11-8(12)6-10-9(13)7-4-2-1-3-5-7/h1-5H,6H2,(H,10,13)(H,11,12)
Instrument: Thermo Scientific Q-Exactive Focus
Instrument type: LC-ESI-ITFT
Ms type: MS2
Ion mode: NEGATIVE
Ionization: ESI
Collision energy: 20
Column name: Acquity CSHC18
Retention time: 0.642 min
Base peak: 178.05096
Precursor m/z: 178.05096
Precursor type: [M-H]-
m/z	relative intensity
69.6832	67
76.9889	66
92.5153	144
93.7944	69
110.6696	69
112.0378	65
132.0443	187
134.06	999
178.0502	101
188.7386	67
