Mass spectrum: 3,4-Dihydroxybenzaldehyde; LC-ESI-QTOF; MS2; CE: 0.00;  [M+H]+
Name: 3,4-Dihydroxybenzaldehyde
Class: NA
Formula: C7H6O3
Exact mass: 138.0317
SMILES: C1=CC(=C(C=C1C=O)O)O
InChI: InChI=1S/C7H6O3/c8-4-5-1-2-6(9)7(10)3-5/h1-4,9-10H
Instrument: Bruker MicrOTOF-Q
Instrument type: LC-ESI-QTOF
Ms type: MS2
Ion mode: POSITIVE
Ionization: ESI
Collision energy: 0.00
Column name: Acquity CSHC18
Retention time: NA
Base peak: 139.0390
Precursor m/z: 139.0390
Precursor type: [M+H]+
m/z	relative intensity
110.0377	136
111.0389	333
137.0227	165
139.0377	999
