Mass spectrum: H-Phe-Ile-OH; LC-ESI-QTOF; MS2; CE: 15.00;  [M+H]+
Name: H-Phe-Ile-OH
Class: NA
Formula: C15H22N2O3
Exact mass: 278.1630
SMILES: CCC(C)C(C(=O)O)NC(=O)C(CC1=CC=CC=C1)N
InChI: InChI=1S/C15H22N2O3/c1-3-10(2)13(15(19)20)17-14(18)12(16)9-11-7-5-4-6-8-11/h4-8,10,12-13H,3,9,16H2,1-2H3,(H,17,18)(H,19,20)
Instrument: Bruker MicrOTOF-Q
Instrument type: LC-ESI-QTOF
Ms type: MS2
Ion mode: POSITIVE
Ionization: ESI
Collision energy: 15.00
Column name: Acquity CSHC18
Retention time: NA
Base peak: 279.1703
Precursor m/z: 279.1703
Precursor type: [M+H]+
m/z	relative intensity
165.1	2
166.09	3
174.13	5
174.19	3
186.11	3
188.14	14
189.14	2
198.13	2
204.14	2
205.16	2
205.31	2
215.15	16
216.14	123
217.14	25
218.15	2
220.13	18
221.14	2
228.91	3
232.94	3
233.03	2
233.16	999
233.42	4
233.54	3
233.6	2
233.7	4
233.91	4
234	3
234.16	181
234.99	2
235.16	14
239.58	2
244.13	20
250.14	8
260.04	3
261.16	40
262.15	68
263.14	6
278.77	2
278.86	2
278.98	3
279.17	953
279.37	7
279.48	4
279.68	4
279.77	3
280	2
280.17	140
406.85	2
520.27	2
526.4	3
529.46	3
