Mass spectrum: S-HEXYL-GLUTATHIONE; LC-ESI-QFT; MS2; CE: 30eV;  [M-H]-
Name: S-HEXYL-GLUTATHIONE
Class: NA
Formula: C16H29N3O6S
Exact mass: 391.17771
SMILES: CCCCCCSCC(C(=O)NCC(=O)O)NC(=O)CCC(C(=O)O)N
InChI: InChI=1S/C16H29N3O6S/c1-2-3-4-5-8-26-10-12(15(23)18-9-14(21)22)19-13(20)7-6-11(17)16(24)25/h11-12H,2-10,17H2,1H3,(H,18,23)(H,19,20)(H,21,22)(H,24,25)
Instrument: Q-Exactive Orbitrap, Thermo Scientfic; Ultimate 3000 HPLC, Thermo Scientfic
Instrument type: LC-ESI-QFT
Ms type: MS2
Ion mode: NEGATIVE
Ionization: ESI
Collision energy: 30eV
Column name: Acquity CSHC18
Retention time: 7.777 min
Base peak: 390.1704
Precursor m/z: 390.1704
Precursor type: [M-H]-
Precursor intensity: 117
m/z	relative intensity
53.1524	4
58.0283	33
61.2852	3
64.074	3
66.0333	7
67.7301	4
74.0233	184
82.0283	5
86.0232	81
87.0548	8
92.9109	3
97.039	8
99.0548	137
101.0705	32
102.0544	5
107.0601	4
107.5564	5
109.0755	21
112.0388	16
115.2005	4
116.717	4
117.0728	68
123.0547	5
125.034	19
126.0181	6
126.042	7
127.0498	66
128.0338	596
129.0374	8
135.0551	41
141.0656	38
143.0448	999
144.0482	29
145.0606	48
146.0445	94
153.0656	83
166.0974	67
167.0452	46
167.0814	82
170.032	30
171.0403	22
179.0451	279
180.0486	10
181.061	36
181.4955	4
184.1082	19
185.0558	36
192.0767	35
197.0559	40
210.0877	301
211.0912	18
228.0434	4
228.0981	5
236.0678	5
254.0779	141
255.0811	7
261.1268	30
271.3184	4
272.0888	103
334.934	4
349.4736	4
357.0012	4
372.1603	7
390.1704	24
