Mass spectrum: vanillin; LC-ESI-ITFT; MS2; CE: 0.3;  [M-H]-
Name: vanillin
Class: phenolic aldehydes
Formula: C8H8O3
Exact mass: 152.0473
SMILES: COC1=C(C=CC(=C1)C=O)O
InChI: InChI=1S/C8H8O3/c1-11-8-4-6(5-9)2-3-7(8)10/h2-5,10H,1H3
Instrument: LTQ-Orbitrap XL hybrid mass spectrometer (Thermo Scientific)
Instrument type: LC-ESI-ITFT
Ms type: MS2
Ion mode: NEGATIVE
Ionization: ESI
Collision energy: 0.3
Column name: Acquity CSHC18
Retention time: 5.093 min
Base peak: 151.0403
Precursor m/z: 151.0403
Precursor type: [M-H]-
Precursor intensity: 599699.7
m/z	relative intensity
50.9345	41
55.687	40
56.748	44
58.8755	43
63.2625	41
63.5131	48
63.5984	46
65.3564	36
65.681	45
68.9114	41
71.0967	44
73.4289	46
77.6997	52
77.7948	41
77.9292	41
78.6653	45
81.0105	58
86.1168	49
90.1381	48
103.5765	42
105.3021	42
106.8887	42
108.203	50
108.7257	60
108.814	48
112.0901	49
114.1385	56
114.8403	44
114.9319	55
115.7836	50
118.5381	52
126.6261	59
128.555	65
135.1767	46
136.0167	999
139.2328	53
141.2279	49
148.1626	52
149.775	63
