Mass spectrum: ADENOSINE; LC-ESI-QFT; MS2; CE: 30eV;  [M+H]+
Name: ADENOSINE
Class: NA
Formula: C10H13N5O4
Exact mass: 267.09675
SMILES: NC1=NC=NC2=C1N=CN2[C@@H]1O[C@H](CO)[C@@H](O)[C@H]1O
InChI: InChI=1S/C10H13N5O4/c11-8-5-9(13-2-12-8)15(3-14-5)10-7(18)6(17)4(1-16)19-10/h2-4,6-7,10,16-18H,1H2,(H2,11,12,13)/t4-,6-,7-,10-/m1/s1
Instrument: Q-Exactive Orbitrap, Thermo Scientfic; Ultimate 3000 HPLC, Thermo Scientfic
Instrument type: LC-ESI-QFT
Ms type: MS2
Ion mode: POSITIVE
Ionization: ESI
Collision energy: 30eV
Column name: Acquity CSHC18
Retention time: 1.146 min
Base peak: 268.1040
Precursor m/z: 268.1040
Precursor type: [M+H]+
Precursor intensity: 104
m/z	relative intensity
53.8592	3
54.2468	3
54.7907	4
55.0187	33
57.0343	97
59.2332	4
59.6228	5
59.7522	3
59.9691	4
60.8871	4
61.0292	19
61.0347	3
63.7298	5
64.7603	3
66.0218	4
69.0343	12
71.0135	8
71.3541	4
72.4557	4
73.0292	47
79.3658	4
85.0291	85
87.0449	10
97.029	30
103.0396	10
104.6164	4
105.3831	4
105.6575	5
113.8301	4
115.0395	94
119.0356	10
124.5273	5
133.05	152
137.0592	126
137.0655	363
146.4571	4
153.6147	5
178.0733	7
189.9312	4
190.2514	5
214.9252	5
230.808	4
250.0936	4
268.1045	999
268.2337	5
269.1091	58
