Mass spectrum: Prostaglandin E2 serinol amide; ESI-TOF; MS2; CE: 6.0000000;  [M+H]+
Name: Prostaglandin E2 serinol amide
Class: NA
Formula: C23H39NO6
Exact mass: 425.27774
SMILES: O=C1[C@H](C/C=C\CCCC(N([H])C(CO)CO)=O)[C@@H](/C=C/[C@@H](O)CCCCC)[C@H](O)C1
InChI: InChI=1S/C23H39NO6/c1-2-3-6-9-18(27)12-13-20-19(21(28)14-22(20)29)10-7-4-5-8-11-23(30)24-17(15-25)16-26/h4,7,12-13,17-20,22,25-27,29H,2-3,5-6,8-11,14-16H2,1H3,(H,24,30)/b7-4-,13-12+/t18-,19+,20+,22+/m0/s1
Instrument: waters xevo g2 TOF
Instrument type: ESI-TOF
Ms type: MS2
Ion mode: POSITIVE
Ionization: ESI
Collision energy: 6.0000000
Column name: Acquity CSHC18
Retention time: 3.072 min
Base peak: 426.28574
Precursor m/z: 426.28574
Precursor type: [M+H]+
m/z	relative intensity
214.6096	15
222.5957	2
223.6147	82
224.1161	6
224.6155	2
231.6	2
258.0614	1
317.2111	2
324.1145	3
338.2664	7
346.2361	1
364.2454	6
365.2449	1
372.2536	37
373.2563	8
380.2341	1
390.2646	254
391.2678	62
392.2708	8
408.2755	999
409.2794	276
410.2815	44
411.2802	3
426.2861	13
