Mass spectrum: Threonine; LC-ESI-QTOF; MS2; CE: 10;  [M-H]-
Name: Threonine
Class: NA
Formula: C4H9NO3
Exact mass: 119.05824
SMILES: CC(C(C(=O)O)N)O
InChI: InChI=1S/C4H9NO3/c1-2(6)3(5)4(7)8/h2-3,6H,5H2,1H3,(H,7,8)
Instrument: impact II
Instrument type: LC-ESI-QTOF
Ms type: MS2
Ion mode: NEGATIVE
Ionization: ESI
Collision energy: 10
Column name: Acquity CSHC18
Retention time: 1.834 min
Base peak: 118.05090
Precursor m/z: 118.05090
Precursor type: [M-H]-
m/z	relative intensity
74.0252	999
118.0507	476
