Mass spectrum: S4:20(2,4,4,10); LC-ESI-QTOF; MS2; CE: -10,-35,-60V;  [M+FA-H]-
Name: S4:20(2,4,4,10)
Class: acyl sugar
Formula: C32H54O15
Exact mass: 678.3463
SMILES: CC(O[C@@H]2[C@H](O[C@]1(O[C@@H](CO)[C@H](O)[C@H]1OC(CCCCCCC(C)C)=O)CO)O[C@@H](CO)[C@@H]([C@H]2OC(C(C)C)=O)OC(C(C)C)=O)=O
InChI: InChI=1S/C32H54O15/c1-17(2)12-10-8-9-11-13-23(37)43-28-24(38)21(14-33)46-32(28,16-35)47-31-27(41-20(7)36)26(45-30(40)19(5)6)25(22(15-34)42-31)44-29(39)18(3)4/h17-19,21-22,24-28,31,33-35,38H,8-16H2,1-7H3/t21-,22-,24-,25-,26+,27-,28+,31-,32+/m0/s1
Instrument: TripleToF5600, Sciex; Acquity, Waters
Instrument type: LC-ESI-QTOF
Ms type: MS2
Ion mode: NEGATIVE
Ionization: ESI
Collision energy: -10,-35,-60V
Column name: Acquity CSHC18
Retention time: 13.695 min
Base peak: 723.3605
Precursor m/z: 723.3605
Precursor type: [M+FA-H]-
Precursor intensity: 9422014
m/z	relative intensity
71.0131	14
73.0294	3
81.0383	2
85.0284	8
87.0449	159
88.0501	14
89.0264	10
97.0267	2
101.026	13
101.0644	13
113.0204	21
113.0249	21
143.037	10
155.0716	1
161.0454	9
171.14	241
172.1442	28
189.078	3
231.0862	4
305.0924	12
323.1021	22
393.1433	58
394.1433	11
411.153	48
412.144	8
435.155	11
453.1539	11
463.1738	14
479.7007	2
481.1953	280
482.193	92
483.1948	22
521.5823	1
523.2053	232
524.2133	79
525.2158	16
547.2744	15
549.2842	1
565.287	14
635.3267	216
636.3377	87
637.3388	20
677.3398	111
678.3432	37
714.3223	24
714.3563	24
715.3263	533
716.3234	297
717.3288	55
718.3311	4
720.3568	447
721.0617	31
721.1034	29
721.3536	222
722.3588	51
723.3342	742
723.3608	741
724.3368	999
725.2338	156
725.3403	747
