Mass spectrum: L-Tyrosine; LC-ESI-QTOF; MS2; CE: 19.59;  [2M-H]-
Name: L-Tyrosine
Class: NA
Formula: C9H11NO3
Exact mass: 181.0739
SMILES: C1=CC(=CC=C1CC(C(=O)O)N)O
InChI: InChI=1S/C9H11NO3/c10-8(9(12)13)5-6-1-3-7(11)4-2-6/h1-4,8,11H,5,10H2,(H,12,13)
Instrument: Bruker MicrOTOF-Q
Instrument type: LC-ESI-QTOF
Ms type: MS2
Ion mode: NEGATIVE
Ionization: ESI
Collision energy: 19.59
Column name: Acquity CSHC18
Retention time: NA
Base peak: 361.1405
Precursor m/z: 361.1405
Precursor type: [2M-H]-
m/z	relative intensity
163.04	247
180.07	999
181.07	112
