Mass spectrum: Glycyrrhizic acid; LC-ESI-QTOF; MS2; CE: 36.47;  [M+H]+
Name: Glycyrrhizic acid
Class: NA
Formula: C42H62O16
Exact mass: 822.4038
SMILES: CC1(C2CCC3(C(C2(CCC1OC4C(C(C(C(O4)C(=O)O)O)O)OC5C(C(C(C(O5)C(=O)O)O)O)O)C)C(=O)C=C6C3(CCC7(C6CC(CC7)(C)C(=O)O)C)C)C)C
InChI: InChI=1S/C42H62O16/c1-37(2)21-8-11-42(7)31(20(43)16-18-19-17-39(4,36(53)54)13-12-38(19,3)14-15-41(18,42)6)40(21,5)10-9-22(37)55-35-30(26(47)25(46)29(57-35)33(51)52)58-34-27(48)23(44)24(45)28(56-34)32(49)50/h16,19,21-31,34-35,44-48H,8-15,17H2,1-7H3,(H,49,50)(H,51,52)(H,53,54)
Instrument: Bruker MicrOTOF-Q
Instrument type: LC-ESI-QTOF
Ms type: MS2
Ion mode: POSITIVE
Ionization: ESI
Collision energy: 36.47
Column name: Acquity CSHC18
Retention time: NA
Base peak: 823.4111
Precursor m/z: 823.4111
Precursor type: [M+H]+
m/z	relative intensity
217.1574	16
357.2416	20
407.3316	24
435.3266	30
436.3309	40
453.3376	48
454.3405	53
455.3447	71
471.3471	330
472.3498	999
