Mass spectrum: Pyruvic acid; LC-ESI-QTOF; MS2; CE: 10;  [M-H]-
Name: Pyruvic acid
Class: NA
Formula: C3H4O3
Exact mass: 88.01604
SMILES: CC(=O)C(=O)O
InChI: InChI=1S/C3H4O3/c1-2(4)3(5)6/h1H3,(H,5,6)
Instrument: impact II
Instrument type: LC-ESI-QTOF
Ms type: MS2
Ion mode: NEGATIVE
Ionization: ESI
Collision energy: 10
Column name: Acquity CSHC18
Retention time: 1.853 min
Base peak: 87.00886
Precursor m/z: 87.00886
Precursor type: [M-H]-
m/z	relative intensity
59.0141	73
87.0087	999
87.0188	37
88.0116	22
