Mass spectrum: salireposide; LC-ESI-ITFT; MS2; CE: 20/50eV;  [M-H]-
Name: salireposide
Class: Salicinoid
Formula: C20H22O9
Exact mass: 406.1264
SMILES: C1=CC=C(C=C1)C(=O)OCC2=C(C=CC(=C2)O)OC3C(C(C(C(O3)CO)O)O)O
InChI: InChI=1S/C20H22O9/c21-9-15-16(23)17(24)18(25)20(29-15)28-14-7-6-13(22)8-12(14)10-27-19(26)11-4-2-1-3-5-11/h1-8,15-18,20-25H,9-10H2
Instrument: Bruker timsTOF
Instrument type: LC-ESI-ITFT
Ms type: MS2
Ion mode: NEGATIVE
Ionization: ESI
Collision energy: 20/50eV
Column name: Acquity CSHC18
Retention time: 5.993 min
Base peak: 405.1187
Precursor m/z: 405.1187
Precursor type: [M-H]-
Precursor intensity: 21272.88
m/z	relative intensity
121.029	999
283.081	374
