Mass spectrum: Capsaicin; LC-ESI-QTOF; MS2; CE: 50eV;  [M+H]+
Name: Capsaicin
Class: Capsaicinoid
Formula: C18H27NO3
Exact mass: 305.1991
SMILES: CC(C)C=CCCCCC(=O)NCC1=CC(=C(C=C1)O)OC
InChI: InChI=1S/C18H27NO3/c1-14(2)8-6-4-5-7-9-18(21)19-13-15-10-11-16(20)17(12-15)22-3/h6,8,10-12,14,20H,4-5,7,9,13H2,1-3H3,(H,19,21)
Instrument: TIMS-TOF Pro, Bruker Daltonik; Elute UHPLC System, Bruker Daltonik
Instrument type: LC-ESI-QTOF
Ms type: MS2
Ion mode: POSITIVE
Ionization: ESI
Collision energy: 50eV
Column name: Acquity CSHC18
Retention time: 9.490 min
Base peak: 306.2032
Precursor m/z: 306.2032
Precursor type: [M+H]+
Precursor intensity: 696495.3
m/z	relative intensity
22.4085	3
31.215	1
35.4239	3
49.0165	1
55.05	1
66.0397	2
79.6177	2
93.0647	2
94.0407	24
97.0586	2
104.2508	1
107.0853	2
115.0925	2
122.0368	63
123.0379	4
125.1464	4
133.0925	1
133.098	7
135.1173	7
137.044	24
137.0589	999
137.3916	6
138.0619	38
151.1098	1
153.1293	11
170.1545	8
182.1152	1
182.1538	13
