Mass spectrum: N1-Acetylspermine; ESI-TOF; MS2; CE: 0.6458333;  [M+H]+
Name: N1-Acetylspermine
Class: NA
Formula: C12H28N4O
Exact mass: 244.22631
SMILES: CC(=O)NCCCNCCCCNCCCN
InChI: InChI=1S/C12H28N4O/c1-12(17)16-11-5-10-15-8-3-2-7-14-9-4-6-13/h14-15H,2-11,13H2,1H3,(H,16,17)
Instrument: waters xevo g2 TOF
Instrument type: ESI-TOF
Ms type: MS2
Ion mode: POSITIVE
Ionization: ESI
Collision energy: 0.6458333
Column name: Acquity CSHC18
Retention time: 0.438 min
Base peak: 245.23431
Precursor m/z: 245.23431
Precursor type: [M+H]+
m/z	relative intensity
58.0669	3
72.0819	63
84.0819	340
85.0851	19
97.9697	81
99.0923	15
100.0767	991
101.08	51
102.0831	1
103.9571	2
112.1131	999
113.1164	84
114.1215	1
129.0687	192
130.1426	30
143.0128	7
147.0246	3
157.0276	5
171.1501	265
172.153	27
183.0441	5
185.0588	19
187.0543	6
245.2345	46
