Mass spectrum: N-Methyl-D-aspartic acid; LC-ESI-ITFT; MS2; CE: 40;  [M-H]-
Name: N-Methyl-D-aspartic acid
Class: Organic acids and derivatives; Carboxylic acids and derivatives; Amino acids, peptides, and analogues
Formula: C5H9NO4
Exact mass: 147.05316
SMILES: CN[C@H](CC(O)=O)C(O)=O
InChI: InChI=1S/C5H9NO4/c1-6-3(5(9)10)2-4(7)8/h3,6H,2H2,1H3,(H,7,8)(H,9,10)/t3-/m1/s1
Instrument: Thermo Scientific Q-Exactive Focus
Instrument type: LC-ESI-ITFT
Ms type: MS2
Ion mode: NEGATIVE
Ionization: ESI
Collision energy: 40
Column name: Acquity CSHC18
Retention time: 1.480 min
Base peak: 146.04588
Precursor m/z: 146.04588
Precursor type: [M-H]-
m/z	relative intensity
70.1185	568
75.2147	593
77.3554	619
82.3814	581
92.5152	999
93.6114	662
114.2202	604
116.4956	603
126.2658	574
138.7302	664
