Mass spectrum: cichoric acid; LC-ESI-ITFT; MS2; CE: 0.3;  [M-H]-
Name: cichoric acid
Class: hydroxycinnamates
Formula: C22H18O12
Exact mass: 474.0798
SMILES: C1=CC(=C(C=C1C=CC(=O)OC(C(C(=O)O)OC(=O)C=CC2=CC(=C(C=C2)O)O)C(=O)O)O)O
InChI: InChI=1S/C22H18O12/c23-13-5-1-11(9-15(13)25)3-7-17(27)33-19(21(29)30)20(22(31)32)34-18(28)8-4-12-2-6-14(24)16(26)10-12/h1-10,19-20,23-26H,(H,29,30)(H,31,32)
Instrument: LTQ-Orbitrap XL hybrid mass spectrometer (Thermo Scientific)
Instrument type: LC-ESI-ITFT
Ms type: MS2
Ion mode: NEGATIVE
Ionization: ESI
Collision energy: 0.3
Column name: Acquity CSHC18
Retention time: 7.094 min
Base peak: 473.0724
Precursor m/z: 473.0724
Precursor type: [M-H]-
Precursor intensity: 37695660
m/z	relative intensity
126.2121	1
130.0854	1
130.9901	1
131.375	2
134.6545	1
135.0456	4
137.8113	1
138.2208	1
142.1796	2
145.1984	1
149.0095	79
149.4223	1
149.8142	1
150.0127	2
161.1645	7
168.9915	1
179.0352	66
180.0386	3
194.5022	2
194.5137	1
194.5288	1
194.5478	1
196.1219	6
196.1354	1
201.3198	1
205.0506	2
216.3229	1
219.0299	34
220.0332	3
221.0462	2
224.6669	1
229.7539	1
267.0512	2
275.0195	6
286.5155	6
290.1407	1
290.8588	2
291.5803	3
293.0107	3
293.03	587
293.0486	4
294.0332	54
294.1969	2
294.4901	2
295.2247	2
295.9617	2
307.8824	2
308.6669	4
309.4553	4
309.7713	3
310.9976	3
311.0179	7
311.0247	5
311.0404	999
311.0593	8
311.074	4
311.0929	2
312.0436	95
312.3181	2
312.6198	2
312.6378	6
313.441	4
314.2477	3
318.9331	1
323.8027	2
330.764	2
341.0661	23
342.069	2
457.0765	2
457.0898	1
