Mass spectrum: AGMATINE SULFATE; LC-ESI-QFT; MS2; CE: 30eV;  [M+H]+
Name: AGMATINE SULFATE
Class: NA
Formula: C5H14N4
Exact mass: 130.12185
SMILES: C(CCN=C(N)N)CN
InChI: InChI=1S/C5H14N4/c6-3-1-2-4-9-5(7)8/h1-4,6H2,(H4,7,8,9)
Instrument: Q-Exactive Orbitrap, Thermo Scientfic; Ultimate 3000 HPLC, Thermo Scientfic
Instrument type: LC-ESI-QFT
Ms type: MS2
Ion mode: POSITIVE
Ionization: ESI
Collision energy: 30eV
Column name: Acquity CSHC18
Retention time: 0.523 min
Base peak: 131.1291
Precursor m/z: 131.1291
Precursor type: [M+H]+
Precursor intensity: 145
m/z	relative intensity
52.2897	1
55.0298	2
55.055	4
55.6676	2
58.4139	1
58.4687	2
58.6005	1
60.0564	999
61.0534	2
61.0598	4
71.93	23
72.9379	10
73.0848	41
81.9527	2
84.0453	2
88.0763	37
89.0796	2
89.9406	33
91.3828	2
97.0766	139
100.1648	2
105.3901	2
107.9509	23
114.1031	901
115.1064	21
122.0597	3
125.9613	19
130.123	61
130.967	11
131.1295	628
132.1267	3
132.133	11
148.9774	17
