Mass spectrum: Hypotaurine; LC-ESI-ITFT; MS2; CE: 20;  [M+H]+
Name: Hypotaurine
Class: Organic acids and derivatives; Sulfinic acids and derivatives; Sulfinic acids
Formula: C2H7NO2S
Exact mass: 109.01975
SMILES: NCCS(O)=O
InChI: InChI=1S/C2H7NO2S/c3-1-2-6(4)5/h1-3H2,(H,4,5)
Instrument: Thermo Scientific Q-Exactive Focus
Instrument type: LC-ESI-ITFT
Ms type: MS2
Ion mode: POSITIVE
Ionization: ESI
Collision energy: 20
Column name: Acquity CSHC18
Retention time: 0.511 min
Base peak: 110.02703
Precursor m/z: 110.02703
Precursor type: [M+H]+
m/z	relative intensity
58.2532	175
62.9904	393
65.9092	171
68.6048	198
72.9376	282
80.6296	172
92.0167	999
92.5224	322
108.3694	177
113.9638	426
