Mass spectrum: Hypoxanthine; LC-ESI-QTOF; MS2; CE: 15 / 50;  [M+H2O+H]+
Name: Hypoxanthine
Class: NA
Formula: C4H4O4
Exact mass: 116.0110
SMILES: C(=CC(=O)O)C(=O)O
InChI: InChI=1S/C4H4O4/c5-3(6)1-2-4(7)8/h1-2H,(H,5,6)(H,7,8)
Instrument: impact II
Instrument type: LC-ESI-QTOF
Ms type: MS2
Ion mode: NEGATIVE
Ionization: ESI
Collision energy: 15 / 50
Column name: Acquity CSHC18
Retention time: 0.684 min
Base peak: 135.0311
Precursor m/z: 135.0311
Precursor type: [M+H2O+H]+
m/z	relative intensity
92.0254	999
135.0311	530
