Mass spectrum: OXOPROLINE; LC-ESI-QFT; MS2; CE: 30eV;  [M+H]+
Name: OXOPROLINE
Class: NA
Formula: C5H7NO3
Exact mass: 129.04259
SMILES: OC(=O)C1CCC(=O)N1
InChI: InChI=1S/C5H7NO3/c7-4-2-1-3(6-4)5(8)9/h3H,1-2H2,(H,6,7)(H,8,9)
Instrument: Q-Exactive Orbitrap, Thermo Scientfic; Ultimate 3000 HPLC, Thermo Scientfic
Instrument type: LC-ESI-QFT
Ms type: MS2
Ion mode: POSITIVE
Ionization: ESI
Collision energy: 30eV
Column name: Acquity CSHC18
Retention time: 0.781 min
Base peak: 130.0499
Precursor m/z: 130.0499
Precursor type: [M+H]+
Precursor intensity: 103
m/z	relative intensity
50.2763	2
56.0503	78
57.1043	2
59.5298	2
60.018	2
71.93	11
72.8443	2
72.9378	4
74.0608	6
79.4724	2
84.0814	2
84.4616	2
85.0421	5
85.0484	80
88.0763	187
89.9406	28
97.0082	32
100.1125	3
102.0556	30
107.9511	27
120.0244	2
125.9614	11
130.0502	999
130.0865	3
130.123	379
130.9666	6
131.0536	14
131.1262	6
148.9774	17
