Mass spectrum: PHENYLALANINE; LC-ESI-QFT; MS2; CE: 30eV;  [M+H]+
Name: PHENYLALANINE
Class: NA
Formula: C9H11NO2
Exact mass: 165.07898
SMILES: N[C@@H](CC1=CC=CC=C1)C(O)=O
InChI: InChI=1S/C9H11NO2/c10-8(9(11)12)6-7-4-2-1-3-5-7/h1-5,8H,6,10H2,(H,11,12)/t8-/m0/s1
Instrument: Q-Exactive Orbitrap, Thermo Scientfic; Ultimate 3000 HPLC, Thermo Scientfic
Instrument type: LC-ESI-QFT
Ms type: MS2
Ion mode: POSITIVE
Ionization: ESI
Collision energy: 30eV
Column name: Acquity CSHC18
Retention time: 1.572 min
Base peak: 166.0863
Precursor m/z: 166.0863
Precursor type: [M+H]+
Precursor intensity: 130
m/z	relative intensity
52.2186	7
54.9192	7
64.1298	9
71.0976	9
74.4691	7
75.0503	8
77.0392	38
79.0549	16
88.3971	9
91.0547	40
93.0673	8
93.0705	49
95.0498	15
103.0548	311
107.0497	182
108.3693	8
109.1973	7
110.8982	9
121.0781	15
121.0845	491
126.5856	11
127.7955	8
131.0495	540
132.0527	11
133.1691	9
135.7311	9
138.0003	10
146.9648	9
149.0601	355
150.063	9
159.8687	8
166.0866	999
167.0898	19
