Mass spectrum: Latanoprost ethyl amide; ESI-TOF; MS2; CE: 6.0000000;  [M+H]+
Name: Latanoprost ethyl amide
Class: NA
Formula: C25H39NO4
Exact mass: 417.28791
SMILES: O[C@@H]1[C@H](C/C=C\CCCC(N([H])CC)=O)[C@@H](CC[C@@H](O)CCC2=CC=CC=C2)[C@H](O)C1
InChI: InChI=1S/C25H39NO4/c1-2-26-25(30)13-9-4-3-8-12-21-22(24(29)18-23(21)28)17-16-20(27)15-14-19-10-6-5-7-11-19/h3,5-8,10-11,20-24,27-29H,2,4,9,12-18H2,1H3,(H,26,30)/b8-3-/t20-,21+,22+,23-,24+/m0/s1
Instrument: waters xevo g2 TOF
Instrument type: ESI-TOF
Ms type: MS2
Ion mode: POSITIVE
Ionization: ESI
Collision energy: 6.0000000
Column name: Acquity CSHC18
Retention time: 3.480 min
Base peak: 418.29591
Precursor m/z: 418.29591
Precursor type: [M+H]+
m/z	relative intensity
156.1386	2
158.1183	10
167.0787	7
195.1164	2
201.6079	1
203.1434	5
209.1326	2
210.6147	5
218.6037	1
219.6197	2
222.1846	5
225.1951	2
228.6245	41
229.1278	12
234.1854	18
235.1669	7
248.2011	145
249.2042	22
260.199	1
279.0915	4
301.0751	2
319.2044	9
320.2172	1
337.2118	1
364.2139	170
365.2777	88
382.2747	400
383.2787	116
384.2794	14
400.2857	470
401.2856	136
402.2899	20
418.2975	999
419.299	317
