Mass spectrum: Proline; LC-ESI-QTOF; MS2; CE: 10;  [M-H]-
Name: Proline
Class: NA
Formula: C5H9NO2
Exact mass: 115.0633
SMILES: C1CC(NC1)C(=O)O
InChI: InChI=1S/C5H9NO2/c7-5(8)4-2-1-3-6-4/h4,6H,1-3H2,(H,7,8)
Instrument: impact II
Instrument type: LC-ESI-QTOF
Ms type: MS2
Ion mode: NEGATIVE
Ionization: ESI
Collision energy: 10
Column name: Acquity CSHC18
Retention time: 1.871 min
Base peak: 114.0559
Precursor m/z: 114.0559
Precursor type: [M-H]-
m/z	relative intensity
86.0247	7
112.04	8
114.0559	999
115.0593	58
