Mass spectrum: N-20:4 L-Serine MeEster; ESI-TOF; MS2; CE: 6.0000000;  [M+H]+
Name: N-20:4 L-Serine MeEster
Class: NA
Formula: C24H39NO4
Exact mass: 405.28791
SMILES: [H]OC([H])([H])C([H])(C(=O)OC([H])([H])[H])N([H])C(=O)C([H])([H])C([H])([H])C([H])([H])C([H])=C([H])C([H])([H])C([H])=C([H])C([H])([H])C([H])=C([H])C([H])([H])C([H])=C([H])C([H])([H])C([H])([H])C([H])([H])C([H])([H])C([H])([H])[H]
InChI: InChI=1S/C24H39NO4/c1-3-4-5-6-7-8-9-10-11-12-13-14-15-16-17-18-19-20-23(27)25-22(21-26)24(28)29-2/h7-8,10-11,13-14,16-17,22,26H,3-6,9,12,15,18-21H2,1-2H3,(H,25,27)
Instrument: waters xevo g2 TOF
Instrument type: ESI-TOF
Ms type: MS2
Ion mode: POSITIVE
Ionization: ESI
Collision energy: 6.0000000
Column name: Acquity CSHC18
Retention time: 7.353 min
Base peak: 406.29591
Precursor m/z: 406.29591
Precursor type: [M+H]+
m/z	relative intensity
60.0451	2
102.0551	33
103.0572	1
105.0701	1
119.0858	7
120.0658	172
121.1012	5
131.0857	3
133.1017	6
145.1014	3
147.117	4
149.096	4
157.1006	2
159.1173	2
161.1323	3
163.1478	2
171.117	7
175.1485	8
177.1636	5
185.1327	7
186.0756	14
189.1643	24
191.1802	7
191.6072	8
198.6145	14
199.1488	5
201.1635	4
203.1795	84
204.1832	14
207.6203	22
208.1223	6
213.619	21
214.1208	4
222.6253	311
223.1273	103
223.6281	36
224.6227	11
227.1783	1
242.1404	3
245.2273	18
256.1564	5
259.2418	22
260.2441	3
267.1643	15
269.2268	95
270.1997	16
282.1688	4
284.1865	3
287.2373	246
288.24	54
289.2437	5
305.2457	3
312.2905	3
334.2717	9
346.2727	15
370.2729	7
374.2673	18
388.2847	55
389.2886	15
404.28	3
406.2959	999
407.2973	292
