Mass spectrum: Creatine; LC-ESI-ITFT; MS2; CE: 10;  [M+H]+
Name: Creatine
Class: Organic acids and derivatives; Carboxylic acids and derivatives; Amino acids, peptides, and analogues
Formula: C4H9N3O2
Exact mass: 131.06948
SMILES: CN(CC(O)=O)C(N)=N
InChI: InChI=1S/C4H9N3O2/c1-7(4(5)6)2-3(8)9/h2H2,1H3,(H3,5,6)(H,8,9)
Instrument: Thermo Scientific Q-Exactive Focus
Instrument type: LC-ESI-ITFT
Ms type: MS2
Ion mode: POSITIVE
Ionization: ESI
Collision energy: 10
Column name: Acquity CSHC18
Retention time: 0.348 min
Base peak: 132.07675
Precursor m/z: 132.07675
Precursor type: [M+H]+
m/z	relative intensity
86.0716	5
87.0557	23
90.0554	999
96.2881	2
114.0664	17
115.0504	13
131.0025	3
132.0769	797
145.2229	3
147.2293	3
