Mass spectrum: TauroChenoDeoxyCholic Acid; LC-ESI-QTOF; MS2; CE: 60;  [M+Na]+
Name: TauroChenoDeoxyCholic Acid
Class: NA
Formula: C26H45NO6S
Exact mass: 499.29676
SMILES: CC(CCC(=O)NCCS(=O)(=O)O)C1CCC2C1(CCC3C2C(CC4C3(CCC(C4)O)C)O)C
InChI: InChI=1S/C26H45NO6S/c1-16(4-7-23(30)27-12-13-34(31,32)33)19-5-6-20-24-21(9-11-26(19,20)3)25(2)10-8-18(28)14-17(25)15-22(24)29/h16-22,24,28-29H,4-15H2,1-3H3,(H,27,30)(H,31,32,33)
Instrument: impact II
Instrument type: LC-ESI-QTOF
Ms type: MS2
Ion mode: POSITIVE
Ionization: ESI
Collision energy: 60
Column name: Acquity CSHC18
Retention time: 1.792 min
Base peak: 522.28570
Precursor m/z: 522.28570
Precursor type: [M+Na]+
m/z	relative intensity
47.0853	11
55.0368	22
60.8415	22
96.4115	34
132.0343	34
148.3776	34
166.5352	45
176.8025	45
228.1691	57
242.1832	114
254.2004	114
321.7596	999
361.7522	11
