Mass spectrum: cellobiose; LC-ESI-QTOF; MS2; CE: -10, -35, -60V;  [M-H]-
Name: cellobiose
Class: NA
Formula: C12H22O11
Exact mass: 342.1162
SMILES: C(C1C(C(C(C(O1)OC2C(OC(C(C2O)O)O)CO)O)O)O)O
InChI: InChI=1S/C12H22O11/c13-1-3-5(15)6(16)9(19)12(22-3)23-10-4(2-14)21-11(20)8(18)7(10)17/h3-20H,1-2H2
Instrument: TripleToF 5600; Sciex
Instrument type: LC-ESI-QTOF
Ms type: MS2
Ion mode: NEGATIVE
Ionization: ESI
Collision energy: -10, -35, -60V
Column name: Acquity CSHC18
Retention time: 0.674 min
Base peak: 341.1120
Precursor m/z: 341.1120
Precursor type: [M-H]-
Precursor intensity: 85808.38
m/z	relative intensity
71.0152	102
73.0301	90
85.0281	15
87.0115	23
89.0218	61
97.0239	76
101.0257	144
113.0249	34
115.0539	28
119.0335	44
143.0308	120
143.0376	120
161.0462	999
179.0536	261
221.0696	42
263.0817	96
281.0943	30
341.1124	468
