Mass spectrum: alpha-Sophorose; LC-ESI-QTOF; MS2; CE: -10, -35, -60V;  [M-H]-
Name: alpha-Sophorose
Class: NA
Formula: C12H22O11
Exact mass: 342.1162
SMILES: C(C1C(C(C(C(O1)O)OC2C(C(C(C(O2)CO)O)O)O)O)O)O
InChI: InChI=1S/C12H22O11/c13-1-3-6(16)8(18)10(11(20)21-3)23-12-9(19)7(17)5(15)4(2-14)22-12/h3-20H,1-2H2
Instrument: TripleToF 5600; Sciex
Instrument type: LC-ESI-QTOF
Ms type: MS2
Ion mode: NEGATIVE
Ionization: ESI
Collision energy: -10, -35, -60V
Column name: Acquity CSHC18
Retention time: 0.674 min
Base peak: 341.1118
Precursor m/z: 341.1118
Precursor type: [M-H]-
Precursor intensity: 47498.44
m/z	relative intensity
89.0245	123
119.0361	78
161.0449	171
179.05	485
179.0575	485
221.0649	844
263.0827	999
323.1018	263
341.1096	528
