Mass spectrum: 5-Hydroxymethyl-2-furancarboxaldehyde; LC-ESI-ITFT; MS2; CE: 40;  [M+H]+
Name: 5-Hydroxymethyl-2-furancarboxaldehyde
Class: Organooxygen compounds; Carbonyl compounds; Aldehydes
Formula: C6H6O3
Exact mass: 126.03169
SMILES: OCC1=CC=C(O1)C=O
InChI: InChI=1S/C6H6O3/c7-3-5-1-2-6(4-8)9-5/h1-3,8H,4H2
Instrument: Thermo Scientific Q-Exactive Focus
Instrument type: LC-ESI-ITFT
Ms type: MS2
Ion mode: POSITIVE
Ionization: ESI
Collision energy: 40
Column name: Acquity CSHC18
Retention time: 1.463 min
Base peak: 127.03897
Precursor m/z: 127.03897
Precursor type: [M+H]+
m/z	relative intensity
50.0157	77
51.0236	256
52.0314	39
53.0392	999
55.0184	34
68.0248	272
81.0339	86
85.3045	31
116.9371	32
125.1598	30
