Mass spectrum: O-acyl sugar AS3; LC-ESI-QTOF; MS2; CE: 22.5eV; [M+Na]+
Name: O-acyl sugar AS3
Class: O-acyl sugar
Formula: C27H46O14
Exact mass: 594.2888
SMILES: CC(CC)C(=O)O[C@H]1[C@H](O[C@H](CO)[C@@H](OC(=O)C(C)CC)[C@@H]1OC(=O)C(C)CC)O[C@]1(CO)O[C@H](CO)[C@@H](O)[C@@H]1O
InChI: InChI=1S/C27H46O14/c1-7-13(4)23(33)37-19-17(11-29)36-26(41-27(12-30)22(32)18(31)16(10-28)40-27)21(39-25(35)15(6)9-3)20(19)38-24(34)14(5)8-2/h13-22,26,28-32H,7-12H2,1-6H3/t13?,14?,15?,16-,17-,18-,19-,20+,21-,22+,26-,27+/m1/s1
Instrument: Microtof-q MS
Instrument type: LC-ESI-QTOF
Ms type: MS2
Ion mode: POSITIVE
Ionization: ESI
Collision energy: 22.5eV
Column name: Acquity CSH C18 column (particle size 1.7 μm, column length 2.1 × 50 mm) (Waters)
Retention time: NA
Base peak: 617.2756
Precursor m/z: 617.2756
Precursor type: [M+Na]+
m/z	relative intensity
185.0406	29
339.1365	43
353.1538	61
367.1745	18
455.2249	999
617.2756	168
