Mass spectrum: Pyridoxine; LC-ESI-ITFT; MS2; CE: 100;  [M-H]-
Name: Pyridoxine
Class: Organoheterocyclic compounds; Pyridines and derivatives; Pyridoxines
Formula: C8H11NO3
Exact mass: 169.07389
SMILES: CC1=C(O)C(CO)=C(CO)C=N1
InChI: InChI=1S/C8H11NO3/c1-5-8(12)7(4-11)6(3-10)2-9-5/h2,10-12H,3-4H2,1H3
Instrument: Thermo Scientific Q-Exactive Focus
Instrument type: LC-ESI-ITFT
Ms type: MS2
Ion mode: NEGATIVE
Ionization: ESI
Collision energy: 100
Column name: Acquity CSHC18
Retention time: 2.316 min
Base peak: 168.06662
Precursor m/z: 168.06662
Precursor type: [M-H]-
m/z	relative intensity
51.198	830
59.4764	829
64.2905	819
67.8456	821
69.1167	842
79.1934	873
114.9432	864
128.9321	864
168.8838	977
174.6579	999
