Mass spectrum: Carbaprostacyclin; ESI-TOF; MS2; CE: 0.6458333;  [M+H]+
Name: Carbaprostacyclin
Class: NA
Formula: C21H34O4
Exact mass: 350.24571
SMILES: O[C@H]1[C@H](/C=C/[C@@H](O)CCCCC)[C@@H](C/C(C2)=C/CCCC(O)=O)[C@@H]2C1
InChI: InChI=1S/C21H34O4/c1-2-3-4-8-17(22)10-11-18-19-13-15(7-5-6-9-21(24)25)12-16(19)14-20(18)23/h7,10-11,16-20,22-23H,2-6,8-9,12-14H2,1H3,(H,24,25)/b11-10+,15-7+/t16-,17-,18+,19-,20+/m0/s1
Instrument: waters xevo g2 TOF
Instrument type: ESI-TOF
Ms type: MS2
Ion mode: POSITIVE
Ionization: ESI
Collision energy: 0.6458333
Column name: Acquity CSHC18
Retention time: 4.628 min
Base peak: 351.25371
Precursor m/z: 351.25371
Precursor type: [M+H]+
m/z	relative intensity
69.0695	49
71.0852	16
79.055	204
81.0703	233
91.0554	316
93.071	386
95.0863	211
105.0703	364
107.0869	227
117.071	543
118.0751	39
119.0868	303
121.1019	156
128.0638	35
129.0714	322
130.0755	39
131.0516	355
133.1027	193
134.1062	15
135.1189	100
137.1336	19
142.0788	32
143.0866	362
144.0901	23
145.1024	328
146.1052	27
147.1182	113
149.1331	145
151.1486	25
153.1004	23
155.0854	178
156.0928	20
157.1021	328
159.1153	117
161.098	139
163.1126	28
165.0914	19
169.1012	95
170.1038	19
171.1182	338
172.1231	33
173.1332	126
175.1491	50
177.0928	34
179.1073	99
181.1111	163
183.1172	119
185.1338	114
186.1351	24
187.1484	142
188.1538	22
189.17	39
195.11	151
197.1314	51
199.1128	168
201.1652	43
209.1318	88
213.1641	148
215.1791	48
217.163	13
219.103	81
223.1578	68
225.1646	21
227.1441	46
231.1372	66
237.1034	32
241.1589	47
245.1547	48
253.194	56
255.2097	84
259.1701	28
260.0654	16
261.074	19
269.2253	93
270.2283	9
273.1838	18
279.2101	100
287.2163	12
297.2217	273
298.2258	25
313.2178	75
315.2327	999
316.2352	167
317.2463	13
327.16	67
331.2262	41
337.2054	19
353.1791	112
