Mass spectrum: Quercetin; LC-ESI-QTOF; MS2; CE: 20-40eV;  [M+H]+
Name: Quercetin
Class: flavonoid
Formula: C15H10O7
Exact mass: 302.0427
SMILES: C1=CC(=C(C=C1C2=C(C(C3=C(C=C(C=C3O2)O)O)=O)O)O)O
InChI: InChI=1S/C15H10O7/c16-7-4-10(19)12-11(5-7)22-15(14(21)13(12)20)6-1-2-8(17)9(18)3-6/h1-5,16-19,21H
Instrument: Impact II, Bruker; Dionex 3000, Thermo Scientific
Instrument type: LC-ESI-QTOF
Ms type: MS2
Ion mode: POSITIVE
Ionization: ESI
Collision energy: 20-40eV
Column name: Acquity CSHC18
Retention time: 4.818 min
Base peak: 303.0499
Precursor m/z: 303.0499
Precursor type: [M+H]+
Precursor intensity: 1580.62
m/z	relative intensity
149.0043	167
303.0514	999
