Mass spectrum: Kdpg intermediate; LC-ESI-QTOF; MS2; CE: -10, -35, -60V;  [M-H]-
Name: Kdpg intermediate
Class: NA
Formula: C6H11O9P
Exact mass: 258.0141
SMILES: C(C(C(COP(=O)(O)O)O)O)C(=O)C(=O)O
InChI: InChI=1S/C6H11O9P/c7-3(1-4(8)6(10)11)5(9)2-15-16(12,13)14/h3,5,7,9H,1-2H2,(H,10,11)(H2,12,13,14)
Instrument: TripleToF 5600; Sciex
Instrument type: LC-ESI-QTOF
Ms type: MS2
Ion mode: NEGATIVE
Ionization: ESI
Collision energy: -10, -35, -60V
Column name: Acquity CSHC18
Retention time: 12.229 min
Base peak: 257.0109
Precursor m/z: 257.0109
Precursor type: [M-H]-
Precursor intensity: 66418.31
m/z	relative intensity
69.0354	53
73.0276	7
78.959	405
96.9685	302
97.0297	70
141.0195	94
159.1022	47
168.9834	24
168.9908	24
198.1494	27
238.9984	235
239.9967	18
244.1586	33
245.1588	14
257.0062	999
