Mass spectrum: 1,2-dioleoyl-sn-glycero-3-phosphoethanolamine; ESI-TOF; MS2; CE: 6.0000000;  [M+H]+
Name: 1,2-dioleoyl-sn-glycero-3-phosphoethanolamine
Class: NA
Formula: C41H78NO8P
Exact mass: 743.54651
SMILES: [H]C(=C([H])C([H])([H])C([H])([H])C([H])([H])C([H])([H])C([H])([H])C([H])([H])C([H])([H])C([H])([H])[H])C([H])([H])C([H])([H])C([H])([H])C([H])([H])C([H])([H])C([H])([H])C([H])([H])C(=O)OC([H])([H])C([H])(OC(=O)C([H])([H])C([H])([H])C([H])([H])C([H])([H])C([H])([H])C([H])([H])C([H])([H])C([H])=C([H])C([H])([H])C([H])([H])C([H])([H])C([H])([H])C([H])([H])C([H])([H])C([H])([H])C([H])([H])[H])C([H])([H])OP(=O)([O-])OC([H])([H])C([H])([H])[N+]([H])([H])[H]
InChI: InChI=1S/C41H78NO8P/c1-3-5-7-9-11-13-15-17-19-21-23-25-27-29-31-33-40(43)47-37-39(38-49-51(45,46)48-36-35-42)50-41(44)34-32-30-28-26-24-22-20-18-16-14-12-10-8-6-4-2/h17-20,39H,3-16,21-38,42H2,1-2H3,(H,45,46)
Instrument: waters xevo g2 TOF
Instrument type: ESI-TOF
Ms type: MS2
Ion mode: POSITIVE
Ionization: ESI
Collision energy: 6.0000000
Column name: Acquity CSHC18
Retention time: 11.348 min
Base peak: 744.55451
Precursor m/z: 744.55451
Precursor type: [M+H]+
m/z	relative intensity
125.9867	2
143.9594	2
258.6121	1
380.2065	2
391.7546	31
392.257	15
392.757	2
410.7281	6
418.7125	2
457.203	7
537.3948	7
569.4385	1
603.5353	102
604.539	44
682.4272	4
682.9306	3
683.4322	1
709.515	8
722.9721	1
739.4598	13
740.4616	3
741.4633	1
744.5539	999
745.5566	237
