Mass spectrum: N-16:0 L-Serine MeEster; ESI-TOF; MS2; CE: 0.6458333;  [M+H]+
Name: N-16:0 L-Serine MeEster
Class: NA
Formula: C20H39NO4
Exact mass: 357.28791
SMILES: [H]OC([H])([H])C([H])(C(=O)OC([H])([H])[H])N([H])C(=O)C([H])([H])C([H])([H])C([H])([H])C([H])([H])C([H])([H])C([H])([H])C([H])([H])C([H])([H])C([H])([H])C([H])([H])C([H])([H])C([H])([H])C([H])([H])C([H])([H])C([H])([H])[H]
InChI: InChI=1S/C20H39NO4/c1-3-4-5-6-7-8-9-10-11-12-13-14-15-16-19(23)21-18(17-22)20(24)25-2/h18,22H,3-17H2,1-2H3,(H,21,23)
Instrument: waters xevo g2 TOF
Instrument type: ESI-TOF
Ms type: MS2
Ion mode: POSITIVE
Ionization: ESI
Collision energy: 0.6458333
Column name: Acquity CSHC18
Retention time: 7.485 min
Base peak: 358.29591
Precursor m/z: 358.29591
Precursor type: [M+H]+
m/z	relative intensity
60.0457	30
71.0342	17
81.0708	23
83.0865	21
85.1022	26
95.0864	46
97.1022	16
102.0559	292
103.0586	11
109.1015	26
120.0663	999
121.0693	52
123.117	11
174.6157	14
183.6207	58
189.6189	11
198.626	36
199.1274	13
207.631	3
216.0178	11
230.0328	29
239.2373	12
278.2484	46
280.2646	53
298.2753	2
326.2695	3
334.2064	148
335.2096	29
336.2437	48
340.2859	227
341.2855	66
346.206	14
347.2582	22
353.2602	39
353.7607	15
358.296	33
359.2574	20
