Mass spectrum: zymosterone; ESI-TOF; MS2; CE: 6.0000000;  [M+H]+
Name: zymosterone
Class: NA
Formula: C27H42O
Exact mass: 382.32357
SMILES: [H]C(=C(C([H])([H])[H])C([H])([H])[H])C([H])([H])C([H])([H])C([H])(C([H])([H])[H])C2([H])(C([H])([H])C([H])([H])C1([H])(C3=C(C([H])([H])C([H])([H])C12(C([H])([H])[H]))C4(C([H])([H])[H])(C([H])([H])C([H])([H])C(=O)C([H])([H])C4([H])(C([H])([H])C3([H])([H])))))
InChI: InChI=1S/C27H42O/c1-18(2)7-6-8-19(3)23-11-12-24-22-10-9-20-17-21(28)13-15-26(20,4)25(22)14-16-27(23,24)5/h7,19-20,23-24H,6,8-17H2,1-5H3
Instrument: waters xevo g2 TOF
Instrument type: ESI-TOF
Ms type: MS2
Ion mode: POSITIVE
Ionization: ESI
Collision energy: 6.0000000
Column name: Acquity CSHC18
Retention time: 10.346 min
Base peak: 383.33157
Precursor m/z: 383.33157
Precursor type: [M+H]+
m/z	relative intensity
137.1322	1
149.1332	7
159.1176	7
161.1329	10
163.1493	3
191.1807	28
203.1804	12
205.1955	7
211.1439	19
215.1783	3
217.1945	6
227.1691	19
229.1579	3
231.6569	35
232.1576	5
241.1957	3
243.1906	2
252.1708	107
252.6712	23
255.2115	10
261.1757	31
268.1834	30
268.6848	11
271.2062	13
272.6823	13
273.2225	5
283.2421	7
299.2961	12
309.2571	6
325.2893	16
365.321	162
366.323	50
381.3155	10
382.3238	11
383.3314	999
384.3344	317
