Mass spectrum: Itaconic acid; LC-ESI-QTOF; MS2; CE: 30;  [M-H]-
Name: Itaconic acid
Class: Branched fatty acids
Formula: C5H6O4
Exact mass: 130.0266
SMILES: OC(=O)CC(=C)C(O)=O
InChI: InChI=1S/C5H6O4/c1-3(5(8)9)2-4(6)7/h1-2H2,(H,6,7)(H,8,9)
Instrument: impact II
Instrument type: LC-ESI-QTOF
Ms type: MS2
Ion mode: NEGATIVE
Ionization: ESI
Collision energy: 30
Column name: Acquity CSHC18
Retention time: 1.845 min
Base peak: 129.0193
Precursor m/z: 129.0193
Precursor type: [M-H]-
m/z	relative intensity
85.0298	999
86.0326	199
