Mass spectrum: Pyroglutamic acid; ESI-TOF; MS2; CE: 0.6458333;  [M+H]+
Name: Pyroglutamic acid
Class: NA
Formula: C5H7NO3
Exact mass: 129.04259
SMILES: OC(=O)C1CCC(=O)N1
InChI: InChI=1S/C5H7NO3/c7-4-2-1-3(6-4)5(8)9/h3H,1-2H2,(H,6,7)(H,8,9)
Instrument: waters xevo g2 TOF
Instrument type: ESI-TOF
Ms type: MS2
Ion mode: POSITIVE
Ionization: ESI
Collision energy: 0.6458333
Column name: Acquity CSHC18
Retention time: 0.781 min
Base peak: 130.05059
Precursor m/z: 130.05059
Precursor type: [M+H]+
m/z	relative intensity
84.0451	999
84.0452	983
96.9614	4
110.9772	192
126.9718	4
130.0503	486
131.0533	4
135.9923	4
135.9927	4
137.988	4
138.9717	396
152.0327	4
156.9812	89
156.9824	215
156.9825	110
158.0032	4
158.0034	4
158.0038	4
167.998	183
170.9823	4
179.9982	9
184.9777	73
202.0191	4
214.9875	4
226.0034	4
226.0047	4
250.9543	4
250.9566	4
260.9922	4
260.9931	4
271.0006	4
271.0014	4
314.0183	4
