Mass spectrum: ADENOSINE-MONOPHOSPHATE; LC-ESI-QTOF; MS2; CE: 20;  [M-H]-
Name: ADENOSINE-MONOPHOSPHATE
Class: NA
Formula: C10H14N5O7P
Exact mass: 347.06308
SMILES: NC1=C2N=CN([C@@H]3O[C@H](COP(O)(O)=O)[C@@H](O)[C@H]3O)C2=NC=N1
InChI: InChI=1S/C10H14N5O7P/c11-8-5-9(13-2-12-8)15(3-14-5)10-7(17)6(16)4(22-10)1-21-23(18,19)20/h2-4,6-7,10,16-17H,1H2,(H2,11,12,13)(H2,18,19,20)/t4-,6-,7-,10-/m1/s1
Instrument: Agilent 6530Â Q-TOF LC/MS
Instrument type: LC-ESI-QTOF
Ms type: MS2
Ion mode: NEGATIVE
Ionization: ESI
Collision energy: 20
Column name: NA
Retention time: 0.200 min
Base peak: 346.05233
Precursor m/z: 346.05233
Precursor type: [M-H]-
Precursor intensity: 133
m/z	relative intensity
78.974	258
96.977	273
134.0488	331
346.0662	999
