Mass spectrum: N-Acetyl-L-tryptophan; LC-ESI-QTOF; MS2; CE: -10, -35, -60V;  [M-H]-
Name: N-Acetyl-L-tryptophan
Class: NA
Formula: C13H14N2O3
Exact mass: 246.1004
SMILES: CC(=O)NC(CC1=CNC2=CC=CC=C21)C(=O)O
InChI: InChI=1S/C13H14N2O3/c1-8(16)15-12(13(17)18)6-9-7-14-11-5-3-2-4-10(9)11/h2-5,7,12,14H,6H2,1H3,(H,15,16)(H,17,18)
Instrument: TripleToF 5600; Sciex
Instrument type: LC-ESI-QTOF
Ms type: MS2
Ion mode: NEGATIVE
Ionization: ESI
Collision energy: -10, -35, -60V
Column name: Acquity CSHC18
Retention time: 11.383 min
Base peak: 245.0966
Precursor m/z: 245.0966
Precursor type: [M-H]-
Precursor intensity: 292517.9
m/z	relative intensity
70.0282	11
72.0496	12
74.0244	132
98.0244	36
116.0384	140
116.049	140
117.0533	10
130.0661	12
131.0386	5
142.0585	30
142.0686	30
144.0457	7
157.0784	8
159.1035	35
167.0635	3
173.0701	5
183.0944	11
199.092	9
201.0627	6
201.1028	57
203.0854	475
204.0844	71
217.0574	15
217.0678	15
242.14	4
244.3261	18
245.0945	999
