Mass spectrum: Rhein; LC-ESI-QTOF; MS2; CE: 15;  [M-H]-
Name: Rhein
Class: NA
Formula: C15H8O6
Exact mass: 284.0321
SMILES: C1=CC2=C(C(=C1)O)C(=O)C3=C(C2=O)C=C(C=C3O)C(=O)O
InChI: InChI=1S/C15H8O6/c16-9-3-1-2-7-11(9)14(19)12-8(13(7)18)4-6(15(20)21)5-10(12)17/h1-5,16-17H,(H,20,21)
Instrument: Bruker MicrOTOF-Q
Instrument type: LC-ESI-QTOF
Ms type: MS2
Ion mode: NEGATIVE
Ionization: ESI
Collision energy: 15
Column name: Acquity CSHC18
Retention time: NA
Base peak: 283.0248
Precursor m/z: 283.0248
Precursor type: [M-H]-
m/z	relative intensity
182.0379	31
183.1814	621
184.0484	123
187.0391	60
188.0428	9
199.0391	163
200.0422	20
201.0189	40
202.0229	6
203.0338	5
210.0312	19
211.0392	999
212.0436	115
213.045	5
215.034	314
216.0381	32
221.0245	10
223.0394	7
225.0193	27
226.0242	12
227.0339	405
228.0377	48
229.0494	661
230.0532	76
237.0155	5
238.1132	14
239.4744	866
241.0456	57
242.021	155
242.9701	420
244.0319	108
255.0289	405
256.0328	60
257.0584	832
258.0472	352
259.0481	13
271.0242	5
283.0239	463
284.0279	122
285.0394	28
