Mass spectrum: ALLANTOIN; LC-ESI-QFT; MS2; CE: 30eV;  [M+H]+
Name: ALLANTOIN
Class: NA
Formula: C4H6N4O3
Exact mass: 158.04399
SMILES: NC(=O)NC1NC(=O)NC1=O
InChI: InChI=1S/C4H6N4O3/c5-3(10)6-1-2(9)8-4(11)7-1/h1H,(H3,5,6,10)(H2,7,8,9,11)
Instrument: Q-Exactive Orbitrap, Thermo Scientfic; Ultimate 3000 HPLC, Thermo Scientfic
Instrument type: LC-ESI-QFT
Ms type: MS2
Ion mode: POSITIVE
Ionization: ESI
Collision energy: 30eV
Column name: Acquity CSHC18
Retention time: 0.554 min
Base peak: 159.0513
Precursor m/z: 159.0513
Precursor type: [M+H]+
Precursor intensity: 151
m/z	relative intensity
51.7966	5
55.9352	304
56.943	12
57.0343	18
57.0706	14
58.0658	8
60.0815	6
60.1196	7
61.0404	999
72.9378	62
73.0404	349
73.9456	15
74.0607	33
74.0972	6
74.9535	9
78.6372	6
85.0291	125
85.5091	6
86.9545	6
88.0512	118
90.9483	102
91.9562	16
95.0133	29
95.0498	7
96.9614	17
96.9725	14
97.9693	34
99.0083	11
99.0195	552
100.1126	67
102.092	12
102.1283	154
107.9509	61
108.9588	28
112.9674	28
113.9642	589
114.972	672
116.0459	554
116.1074	68
118.9428	15
123.0082	69
125.0029	16
125.9614	91
128.9511	109
131.0564	14
131.9746	379
132.9152	7
132.9595	11
135.9457	256
135.9567	10
141.0186	9
141.959	63
146.9619	57
148.9773	7
153.9562	223
158.1181	41
158.1543	716
158.9619	8
159.0292	44
159.0515	43
159.0841	8
159.1386	8
159.1576	189
159.9694	84
