Mass spectrum: Isorhamnetin 3-rutinoside; LC-ESI-QTOF; MS2; CE: 20-40eV;  [M+H]+
Name: Isorhamnetin 3-rutinoside
Class: flavonoid
Formula: C28H32O16
Exact mass: 624.1690
SMILES: CC1(C(C(C(C(OCC2(C(C(C(C(O2)(OC=3C(C4=C(C=C(C=C4OC3C=5C=CC(=C(C5)OC)O)O)O)=O)[H])(O)[H])(O)[H])(O)[H])[H])(O1)[H])(O)[H])(O)[H])(O)[H])[H]
InChI: InChI=1S/C28H32O16/c1-9-18(32)21(35)23(37)27(41-9)40-8-16-19(33)22(36)24(38)28(43-16)44-26-20(34)17-13(31)6-11(29)7-15(17)42-25(26)10-3-4-12(30)14(5-10)39-2/h3-7,9,16,18-19,21-24,27-33,35-38H,8H2,1-2H3
Instrument: Impact II, Bruker; Dionex 3000, Thermo Scientific
Instrument type: LC-ESI-QTOF
Ms type: MS2
Ion mode: POSITIVE
Ionization: ESI
Collision energy: 20-40eV
Column name: Acquity CSHC18
Retention time: 5.265 min
Base peak: 625.1740
Precursor m/z: 625.1740
Precursor type: [M+H]+
Precursor intensity: 3860.25
m/z	relative intensity
99.0443	23
163.0383	15
177.0537	15
185.0606	16
302.0424	23
317.0653	999
318.0685	185
479.1175	93
480.1241	25
481.1228	22
