Mass spectrum: Adenine; LC-ESI-QTOF; MS2; CE: 15.00;  [M+H]+
Name: Adenine
Class: NA
Formula: C5H5N5
Exact mass: 135.0545
SMILES: C1=NC2=NC=NC(=C2N1)N
InChI: InChI=1S/C5H5N5/c6-4-3-5(9-1-7-3)10-2-8-4/h1-2H,(H3,6,7,8,9,10)
Instrument: Bruker MicrOTOF-Q
Instrument type: LC-ESI-QTOF
Ms type: MS2
Ion mode: POSITIVE
Ionization: ESI
Collision energy: 15.00
Column name: Acquity CSHC18
Retention time: NA
Base peak: 136.0618
Precursor m/z: 136.0618
Precursor type: [M+H]+
m/z	relative intensity
119.034	28
120.0363	70
136.0618	448
137.0623	999
