Mass spectrum: L-Asparagine; ESI-TOF; MS2; CE: 6.0000000;  [M+H]+
Name: L-Asparagine
Class: NA
Formula: C4H8N2O3
Exact mass: 132.05349
SMILES: NC(CC(N)=O)C(O)=O
InChI: InChI=1S/C4H8N2O3/c5-2(4(8)9)1-3(6)7/h2H,1,5H2,(H2,6,7)(H,8,9)
Instrument: waters xevo g2 TOF
Instrument type: ESI-TOF
Ms type: MS2
Ion mode: POSITIVE
Ionization: ESI
Collision energy: 6.0000000
Column name: Acquity CSHC18
Retention time: 0.516 min
Base peak: 133.06149
Precursor m/z: 133.06149
Precursor type: [M+H]+
m/z	relative intensity
74.0248	60
87.056	122
88.0395	19
95.9731	11
100.9732	9
116.0348	312
130.0089	32
133.0613	999
134.065	59
140.9632	56
145.0173	22
146.9548	5
155.0429	37
160.9817	29
173.8682	2
183.0081	40
187.9887	26
191.941	7
202.0149	6
228.0305	45
258.17	30
259.8887	5
264.8741	4
274.0363	27
303.0625	19
314.0338	9
316.0333	8
318.026	160
319.0314	52
450.0743	8
636.0442	16
