Mass spectrum: 15(S)-15-methyl Prostaglandin E1; ESI-TOF; MS2; CE: 0.6458333;  [M+H]+
Name: 15(S)-15-methyl Prostaglandin E1
Class: NA
Formula: C21H36O5
Exact mass: 368.25627
SMILES: CCCCC[C@](C)(O)\C=C\[C@H]1C(O)CC(=O)C1CCCCCCC(=O)O
InChI: InChI=1S/C21H36O5/c1-3-4-9-13-21(2,26)14-12-17-16(18(22)15-19(17)23)10-7-5-6-8-11-20(24)25/h12,14,16-17,19,23,26H,3-11,13,15H2,1-2H3,(H,24,25)/b14-12+/t16?,17-,19?,21+/m1/s1
Instrument: waters xevo g2 TOF
Instrument type: ESI-TOF
Ms type: MS2
Ion mode: POSITIVE
Ionization: ESI
Collision energy: 0.6458333
Column name: Acquity CSHC18
Retention time: 3.805 min
Base peak: 369.26427
Precursor m/z: 369.26427
Precursor type: [M+H]+
m/z	relative intensity
81.0696	579
83.0847	77
93.0699	462
95.086	499
105.0708	518
107.0678	401
117.0717	157
119.0866	457
121.1006	117
123.116	69
129.0704	163
131.0856	439
135.0818	131
143.0849	281
145.1014	534
147.0813	287
149.133	96
157.1005	255
159.1176	210
161.1318	289
163.1459	105
173.1311	74
175.1494	187
181.1054	46
185.1321	87
189.1633	74
199.1493	258
201.1627	109
217.1593	473
219.1495	15
221.1171	64
223.062	64
231.172	54
287.2386	284
315.2313	999
316.2366	216
319.1921	180
333.2411	281
371.2002	118
