Mass spectrum: Famotidine; ESI-TOF; MS2; CE: 6.0000000;  [M+H]+
Name: Famotidine
Class: NA
Formula: C8H15N7O2S3
Exact mass: 337.04494
SMILES: NC(=N)NC1=NC(CSCCC(=N)NS(N)(=O)=O)=CS1
InChI: InChI=1S/C8H15N7O2S3/c9-6(15-20(12,16)17)1-2-18-3-5-4-19-8(13-5)14-7(10)11/h4H,1-3H2,(H2,9,15)(H2,12,16,17)(H4,10,11,13,14)
Instrument: waters xevo g2 TOF
Instrument type: ESI-TOF
Ms type: MS2
Ion mode: POSITIVE
Ionization: ESI
Collision energy: 6.0000000
Column name: Acquity CSHC18
Retention time: 0.572 min
Base peak: 338.05294
Precursor m/z: 338.05294
Precursor type: [M+H]+
m/z	relative intensity
71.0611	25
98.9617	2
102.0125	3
103.0329	2
105.0485	1
108.0257	4
109.0327	5
113.0172	44
114.0236	15
121.5318	1
126.1045	1
129.0531	7
138.0005	37
139.0171	4
150.0337	11
155.039	297
156.0452	86
157.0354	17
158.0033	4
159.9755	5
160.9887	3
166.9947	59
167.9968	3
170.0422	1
172.0083	1
182.0506	4
184.0197	1
188.0194	2
189.0265	999
190.028	98
191.0226	118
192.0249	6
200.0314	49
201.0332	6
202.0264	4
205.0213	9
217.0447	2
225.0267	11
242.0527	127
243.0548	29
244.0492	23
258.9828	861
260.0816	250
261.0761	194
262.0772	23
263.073	5
273.0947	2
311.9913	2
313.0893	1
321.025	6
338.0524	453
339.0542	121
