Mass spectrum: 2,6-DIHYDROXYPYRIDINE; LC-ESI-QTOF; MS2; CE: 20;  [M-H]-
Name: 2,6-DIHYDROXYPYRIDINE
Class: NA
Formula: C5H5NO2
Exact mass: 111.03203
SMILES: C1=CC(=O)NC(=C1)O
InChI: InChI=1S/C5H5NO2/c7-4-2-1-3-5(8)6-4/h1-3H,(H2,6,7,8)
Instrument: Agilent 6530Â Q-TOF LC/MS
Instrument type: LC-ESI-QTOF
Ms type: MS2
Ion mode: NEGATIVE
Ionization: ESI
Collision energy: 20
Column name: NA
Retention time: 0.200 min
Base peak: 110.02582
Precursor m/z: 110.02582
Precursor type: [M-H]-
Precursor intensity: 151
m/z	relative intensity
40.0358	189
41.0067	232
42.0024	246
50.0052	268
66.053	960
110.0288	999
