Mass spectrum: AL 8810 ethyl amide; ESI-TOF; MS2; CE: 0.6458333;  [M+H]+
Name: AL 8810 ethyl amide
Class: NA
Formula: C26H36FNO3
Exact mass: 429.26792
SMILES: O[C@@H]1[C@H](C/C=C\CCCC(NCC)=O)[C@@H](/C=C/[C@H](O)C2CC3=CC=CC=C3C2)[C@@H](F)C1
InChI: InChI=1S/C26H36FNO3/c1-2-28-26(31)12-6-4-3-5-11-22-21(23(27)17-25(22)30)13-14-24(29)20-15-18-9-7-8-10-19(18)16-20/h3,5,7-10,13-14,20-25,29-30H,2,4,6,11-12,15-17H2,1H3,(H,28,31)/b5-3-,14-13+/t21-,22-,23+,24+,25+/m1/s1
Instrument: waters xevo g2 TOF
Instrument type: ESI-TOF
Ms type: MS2
Ion mode: POSITIVE
Ionization: ESI
Collision energy: 0.6458333
Column name: Acquity CSHC18
Retention time: 3.816 min
Base peak: 430.27592
Precursor m/z: 430.27592
Precursor type: [M+H]+
m/z	relative intensity
67.0533	7
69.0701	7
72.0447	22
81.0704	11
83.0868	11
91.0558	51
93.0705	15
97.0662	6
100.0752	5
105.0711	25
107.0688	9
109.1024	4
114.0927	100
115.0557	44
117.0711	114
119.0872	19
126.0931	4
127.0544	24
128.1083	135
129.0711	777
130.0747	82
131.0866	138
132.0886	6
133.1022	13
135.0809	11
140.1064	6
141.071	66
142.1235	18
143.0872	116
144.0905	16
145.1029	123
149.0966	8
153.0709	62
154.079	27
155.0869	999
156.0906	138
157.1022	85
158.1171	48
159.1199	16
165.0712	10
166.0752	7
167.0859	49
169.1022	106
170.1072	10
171.1181	164
172.1231	16
173.0961	5
175.1096	8
178.0794	20
179.0851	102
181.1015	100
182.1066	8
183.1184	18
185.1334	46
186.1394	4
187.113	83
188.1157	9
191.0872	107
192.0913	18
193.1019	47
194.0998	4
195.1177	64
196.1188	11
199.1118	70
201.1302	15
203.0874	31
204.094	38
205.1029	143
206.1067	22
207.1106	37
209.1361	7
212.0583	4
213.1277	129
214.1331	12
215.607	11
216.0987	4
217.1025	65
218.1071	15
219.118	428
220.1217	84
221.1315	43
223.1113	5
229.1015	27
231.1194	70
232.1225	17
233.1319	107
234.1368	23
235.1416	10
239.1417	4
243.1154	24
244.1695	25
245.1414	120
246.1373	21
247.1126	52
249.1279	48
255.1152	15
256.1313	4
257.1229	16
258.1849	51
259.1686	14
261.1267	9
263.1443	25
269.1334	49
276.1946	2
282.1392	4
283.146	39
284.147	4
285.1626	26
286.1662	11
287.1794	99
288.1821	20
301.1931	20
311.1799	184
312.1819	44
319.2086	7
329.1902	281
330.1934	75
331.1938	19
346.2171	12
347.202	80
348.2166	19
349.1981	8
374.2487	384
375.2515	105
392.2597	196
393.2618	46
394.2569	10
395.2613	2
411.2263	15
411.7361	6
412.2288	111
413.2683	51
414.258	16
416.2744	10
420.2371	13
429.7509	3
432.2517	796
