Mass spectrum: 11-keto Fluprostenol; ESI-TOF; MS2; CE: 6.0000000;  [M+H]+
Name: 11-keto Fluprostenol
Class: NA
Formula: C23H27F3O6
Exact mass: 456.17597
SMILES: O[C@@H](C1)[C@H](C/C=C\CCCC(O)=O)[C@@H](/C=C/[C@@H](O)COC2=CC=CC(C(F)(F)F)=C2)C1=O
InChI: InChI=1S/C23H27F3O6/c24-23(25,26)15-6-5-7-17(12-15)32-14-16(27)10-11-19-18(20(28)13-21(19)29)8-3-1-2-4-9-22(30)31/h1,3,5-7,10-12,16,18-20,27-28H,2,4,8-9,13-14H2,(H,30,31)/b3-1-,11-10+/t16-,18-,19-,20+/m1/s1
Instrument: waters xevo g2 TOF
Instrument type: ESI-TOF
Ms type: MS2
Ion mode: POSITIVE
Ionization: ESI
Collision energy: 6.0000000
Column name: Acquity CSHC18
Retention time: 3.668 min
Base peak: 457.18397
Precursor m/z: 457.18397
Precursor type: [M+H]+
m/z	relative intensity
129.0711	42
157.065	11
167.0713	75
168.0746	8
171.1164	23
181.1024	20
189.1276	25
195.1118	32
197.098	18
199.1126	194
200.114	18
213.1282	231
214.1322	30
218.0966	78
218.5626	25
219.0596	9
223.112	110
228.061	14
231.1371	144
233.1134	17
234.0731	35
241.1235	722
242.1272	94
243.1285	9
244.0737	16
259.1334	999
260.1376	178
261.1424	10
277.143	619
278.1464	89
291.158	35
333.1625	27
403.1533	46
404.1522	8
421.1633	365
439.1801	168
440.1765	32
446.1528	21
450.0722	15
