Mass spectrum: lactucopicrin oxalate; ESI-QTOF; MS2; CE: 25V ± 15V CES;  [M+H]+
Name: lactucopicrin oxalate
Class: Sesquiterpene lactone
Formula: C25H22O10
Exact mass: 482.1213
SMILES: CC1=C2C(C3C(C(C1)OC(=O)CC4=CC=C(C=C4)O)C(=C)C(=O)O3)C(=CC2=O)COC(=O)C(=O)O
InChI: InChI=1S/C25H22O10/c1-11-7-17(34-18(28)8-13-3-5-15(26)6-4-13)20-12(2)24(31)35-22(20)21-14(9-16(27)19(11)21)10-33-25(32)23(29)30/h3-6,9,17,20-22,26H,2,7-8,10H2,1H3,(H,29,30)
Instrument: TripleToF 5600, Sciex
Instrument type: ESI-QTOF
Ms type: MS2
Ion mode: POSITIVE
Ionization: ESI
Collision energy: 25V ± 15V CES
Column name: Acquity CSHC18
Retention time: 6.542 min
Base peak: 483.1206
Precursor m/z: 483.1206
Precursor type: [M+H]+
Precursor intensity: 738644.6
m/z	relative intensity
157.0864	17
167.0826	20
169.0812	36
170.0859	74
173.0444	77
185.0808	80
187.0894	130
198.0838	146
199.0576	203
200.0687	222
231.1	247
313.079	359
332.1127	665
349.084	999
