Mass spectrum: C24 Ceramide (d18:1/24:0); ESI-TOF; MS2; CE: 6.0000000;  [M+H]+
Name: C24 Ceramide (d18:1/24:0)
Class: NA
Formula: C42H83NO3
Exact mass: 649.63730
SMILES: [H]OC([H])([H])C([H])(N([H])C(=O)C([H])([H])C([H])([H])C([H])([H])C([H])([H])C([H])([H])C([H])([H])C([H])([H])C([H])([H])C([H])([H])C([H])([H])C([H])([H])C([H])([H])C([H])([H])C([H])([H])C([H])([H])C([H])([H])C([H])([H])C([H])([H])C([H])([H])C([H])([H])C([H])([H])C([H])([H])C([H])([H])[H])C([H])(O[H])C([H])=C([H])C([H])([H])C([H])([H])C([H])([H])C([H])([H])C([H])([H])C([H])([H])C([H])([H])C([H])([H])C([H])([H])C([H])([H])C([H])([H])C([H])([H])C([H])([H])[H]
InChI: InChI=1S/C42H83NO3/c1-3-5-7-9-11-13-15-17-18-19-20-21-22-23-24-26-28-30-32-34-36-38-42(46)43-40(39-44)41(45)37-35-33-31-29-27-25-16-14-12-10-8-6-4-2/h35,37,40-41,44-45H,3-34,36,38-39H2,1-2H3,(H,43,46)
Instrument: waters xevo g2 TOF
Instrument type: ESI-TOF
Ms type: MS2
Ion mode: POSITIVE
Ionization: ESI
Collision energy: 6.0000000
Column name: Acquity CSHC18
Retention time: 12.506 min
Base peak: 650.64530
Precursor m/z: 650.64530
Precursor type: [M+H]+
m/z	relative intensity
214.9179	64
214.9188	71
252.2692	1
264.2692	1
265.2722	1
281.0513	1
282.28	1
320.7893	25
321.2918	1
327.2905	1
327.2938	1
344.8002	651
345.8036	41
432.3521	1
614.6225	1
615.63	1
632.6341	999
633.6365	457
634.6402	64
650.6434	669
651.6461	307
652.6526	47
669.6163	141
670.1183	134
670.6203	60
671.4416	1
672.6257	494
673.6302	290
674.6316	70
687.436	63
734.5947	261
735.6005	116
750.5676	101
751.5722	32
758.2142	33
994.4366	1
994.9358	33
995.437	30
