Mass spectrum: D-Glucurono-6,3-lactone; ESI-TOF; MS2; CE: 0.6458333;  [M+H]+
Name: D-Glucurono-6,3-lactone
Class: NA
Formula: C6H8O6
Exact mass: 176.03209
SMILES: OC1OC2C(O)C(=O)OC2C1O
InChI: InChI=1S/C6H8O6/c7-1-3-4(12-5(1)9)2(8)6(10)11-3/h1-5,7-9H
Instrument: waters xevo g2 TOF
Instrument type: ESI-TOF
Ms type: MS2
Ion mode: POSITIVE
Ionization: ESI
Collision energy: 0.6458333
Column name: Acquity CSHC18
Retention time: 0.571 min
Base peak: 177.04009
Precursor m/z: 177.04009
Precursor type: [M+H]+
m/z	relative intensity
85.0293	398
113.9407	384
113.9641	418
126.9489	134
130.0078	9
130.0094	9
137.9883	9
139.9563	456
139.9882	135
141.9593	999
143.9592	123
144.9595	106
152.9948	9
154.9664	200
155.034	9
155.975	149
158.0035	9
158.0036	9
159.0299	9
160.0319	9
170.9819	9
170.983	9
173.0027	316
184.9859	9
186.981	9
194.0674	9
199.022	371
201.9565	461
201.9567	126
215.0752	9
226.0936	9
231.0483	786
261.9773	9
287.8906	9
289.9725	443
321.9961	9
375.0544	9
377.0314	9
405.9838	9
406.9888	9
407.0794	9
438.0097	9
439.0125	9
439.106	9
