Mass spectrum: Betaine; ESI-TOF; MS2; CE: 6.0000000;  [M+H]+
Name: Betaine
Class: NA
Formula: C5H11NO2
Exact mass: 117.07898
SMILES: C[N+](C)(C)CC([O-])=O
InChI: InChI=1S/C5H11NO2/c1-6(2,3)4-5(7)8/h4H2,1-3H3
Instrument: waters xevo g2 TOF
Instrument type: ESI-TOF
Ms type: MS2
Ion mode: POSITIVE
Ionization: ESI
Collision energy: 6.0000000
Column name: Acquity CSHC18
Retention time: 0.565 min
Base peak: 118.08698
Precursor m/z: 118.08698
Precursor type: [M+H]+
m/z	relative intensity
113.9644	4
118.087	999
119.0902	60
120.092	4
130.0082	1
140.0693	5
235.165	21
236.1696	1
236.941	1
257.148	11
491.3074	4
492.3088	1
