Mass spectrum: 1,2-dipalmitoleoyl-sn-glycero-3-phosphocholine; ESI-TOF; MS2; CE: 6.0000000;  [M+H]+
Name: 1,2-dipalmitoleoyl-sn-glycero-3-phosphocholine
Class: NA
Formula: C40H76NO8P
Exact mass: 729.53086
SMILES: [H]C(=C([H])C([H])([H])C([H])([H])C([H])([H])C([H])([H])C([H])([H])C([H])([H])C([H])([H])C(=O)OC([H])([H])C([H])(OC(=O)C([H])([H])C([H])([H])C([H])([H])C([H])([H])C([H])([H])C([H])([H])C([H])([H])C([H])=C([H])C([H])([H])C([H])([H])C([H])([H])C([H])([H])C([H])([H])C([H])([H])[H])C([H])([H])OP(=O)([O-])OC([H])([H])C([H])([H])[N+](C([H])([H])[H])(C([H])([H])[H])C([H])([H])[H])C([H])([H])C([H])([H])C([H])([H])C([H])([H])C([H])([H])C([H])([H])[H]
InChI: InChI=1S/C40H76NO8P/c1-6-8-10-12-14-16-18-20-22-24-26-28-30-32-39(42)46-36-38(37-48-50(44,45)47-35-34-41(3,4)5)49-40(43)33-31-29-27-25-23-21-19-17-15-13-11-9-7-2/h16-19,38H,6-15,20-37H2,1-5H3
Instrument: waters xevo g2 TOF
Instrument type: ESI-TOF
Ms type: MS2
Ion mode: POSITIVE
Ionization: ESI
Collision energy: 6.0000000
Column name: Acquity CSHC18
Retention time: 10.413 min
Base peak: 730.53886
Precursor m/z: 730.53886
Precursor type: [M+H]+
m/z	relative intensity
184.0742	7
257.6354	1
274.1239	6
274.6261	2
293.1798	50
294.1839	12
309.153	19
310.1542	1
311.154	3
325.2065	2
384.7479	35
385.2496	16
385.7511	4
449.7255	3
450.2299	1
457.7133	1
476.315	198
477.3178	28
478.3202	3
528.1058	2
547.4734	7
548.4792	1
730.5404	999
731.544	470
