Mass spectrum: 6-PHOSPHOGLUCONATE; LC-ESI-QFT; MS2; CE: 30eV;  [M-H]-
Name: 6-PHOSPHOGLUCONATE
Class: NA
Formula: C6H13O10P
Exact mass: 276.02463
SMILES: O[C@H](COP(O)(O)=O)[C@@H](O)[C@H](O)[C@@H](O)C(O)=O
InChI: InChI=1S/C6H13O10P/c7-2(1-16-17(13,14)15)3(8)4(9)5(10)6(11)12/h2-5,7-10H,1H2,(H,11,12)(H2,13,14,15)/t2-,3-,4+,5-/m1/s1
Instrument: Q-Exactive Orbitrap, Thermo Scientfic; Ultimate 3000 HPLC, Thermo Scientfic
Instrument type: LC-ESI-QFT
Ms type: MS2
Ion mode: NEGATIVE
Ionization: ESI
Collision energy: 30eV
Column name: Acquity CSHC18
Retention time: 0.611 min
Base peak: 275.0174
Precursor m/z: 275.0174
Precursor type: [M-H]-
Precursor intensity: 185
m/z	relative intensity
54.5356	4
56.9469	7
59.012	7
68.6271	5
71.012	12
75.007	11
78.9572	484
84.9369	6
85.0277	14
88.7464	5
96.9678	999
97.2837	5
99.0069	57
101.686	5
103.3131	7
128.9267	7
129.0176	92
159.0285	14
177.0391	132
178.9053	6
195.0504	28
207.7253	6
220.8831	10
237.5203	6
238.202	8
257.0058	56
270.1477	6
275.017	88
