Mass spectrum: 3-methoxy Limaprost; ESI-TOF; MS2; CE: 6.0000000;  [M+H]+
Name: 3-methoxy Limaprost
Class: NA
Formula: C23H40O6
Exact mass: 412.28249
SMILES: O[C@@H]([C@H](/C=C/[C@@H](O)C[C@@H](C)CCCC)[C@H]1CCCCC(OC)CC(O)=O)CC1=O
InChI: InChI=1S/C23H40O6/c1-4-5-8-16(2)13-17(24)11-12-20-19(21(25)15-22(20)26)10-7-6-9-18(29-3)14-23(27)28/h11-12,16-20,22,24,26H,4-10,13-15H2,1-3H3,(H,27,28)/b12-11+/t16-,17+,18?,19+,20+,22+/m0/s1
Instrument: waters xevo g2 TOF
Instrument type: ESI-TOF
Ms type: MS2
Ion mode: POSITIVE
Ionization: ESI
Collision energy: 6.0000000
Column name: Acquity CSHC18
Retention time: 3.817 min
Base peak: 413.29049
Precursor m/z: 413.29049
Precursor type: [M+H]+
m/z	relative intensity
95.086	5
123.1181	4
127.9801	35
179.1086	20
185.1151	3
201.6043	7
207.1381	4
208.1093	6
229.1394	10
239.146	7
243.174	5
245.1517	16
247.1323	12
249.1789	7
261.1441	4
279.161	36
281.2254	5
283.2422	5
300.2367	5
317.178	15
318.2515	6
327.2326	317
328.2343	58
331.2595	5
333.2433	21
341.2484	43
342.2479	9
345.1891	178
346.2444	68
349.2699	4
359.2574	574
360.2626	137
363.2689	122
376.2429	15
377.2698	839
378.2732	185
391.2801	5
395.2805	999
396.2835	238
397.2843	32
414.2527	208
414.7531	101
415.2503	24
