Mass spectrum: DEOXYURIDINE-MONOPHOSPHATE; LC-ESI-QTOF; MS2; CE: 40;  [M-H]-
Name: DEOXYURIDINE-MONOPHOSPHATE
Class: NA
Formula: C9H13N2O8P
Exact mass: 308.04095
SMILES: O[C@H]1C[C@@H](O[C@@H]1COP(O)(O)=O)N1C=CC(=O)NC1=O
InChI: InChI=1S/C9H13N2O8P/c12-5-3-8(11-2-1-7(13)10-9(11)14)19-6(5)4-18-20(15,16)17/h1-2,5-6,8,12H,3-4H2,(H,10,13,14)(H2,15,16,17)/t5-,6+,8+/m0/s1
Instrument: Agilent 6530Â Q-TOF LC/MS
Instrument type: LC-ESI-QTOF
Ms type: MS2
Ion mode: NEGATIVE
Ionization: ESI
Collision energy: 40
Column name: NA
Retention time: 0.200 min
Base peak: 307.02945
Precursor m/z: 307.02945
Precursor type: [M-H]-
Precursor intensity: 109
m/z	relative intensity
42.0022	132
78.9732	250
96.9704	276
111.0268	999
