Mass spectrum: Acetylglycine; LC-ESI-ITFT; MS2; CE: 40;  [M+H]+
Name: Acetylglycine
Class: Organic acids and derivatives; Carboxylic acids and derivatives; Amino acids, peptides, and analogues
Formula: C4H7NO3
Exact mass: 117.04259
SMILES: CC(=O)NCC(O)=O
InChI: InChI=1S/C4H7NO3/c1-3(6)5-2-4(7)8/h2H2,1H3,(H,5,6)(H,7,8)
Instrument: Thermo Scientific Q-Exactive Focus
Instrument type: LC-ESI-ITFT
Ms type: MS2
Ion mode: POSITIVE
Ionization: ESI
Collision energy: 40
Column name: Acquity CSHC18
Retention time: 1.463 min
Base peak: 118.04987
Precursor m/z: 118.04987
Precursor type: [M+H]+
m/z	relative intensity
66.2469	868
73.1678	900
76.1717	863
83.5023	940
88.8403	905
92.0973	999
95.5863	869
97.1903	903
99.3319	862
107.0159	904
