Mass spectrum: Budlein A methylacrylate; LC-ESI-ITFT; MS2; CE: 50eV;  [M+H]+
Name: Budlein A methylacrylate
Class: Sesquiterpenelactone; Heliangolide
Formula: C19H20O7
Exact mass: 360.1209
SMILES: C=C(C)C(=O)O[C@@H]3C[C@@]1(C)OC(=CC1=O)C(CO)=C[C@@H]2OC(=O)C(=C)[C@@H]23
InChI: InChI=1S/C19H20O7/c1-9(2)17(22)25-14-7-19(4)15(21)6-12(26-19)11(8-20)5-13-16(14)10(3)18(23)24-13/h5-6,13-14,16,20H,1,3,7-8H2,2,4H3/t13-,14+,16-,19+/m0/s1
Instrument: Q Exactive Plus, ThermoFisher Scientific
Instrument type: LC-ESI-ITFT
Ms type: MS2
Ion mode: POSITIVE
Ionization: ESI
Collision energy: 50eV
Column name: Acquity CSHC18
Retention time: 5.204 min
Base peak: 361.1284
Precursor m/z: 361.1284
Precursor type: [M+H]+
Precursor intensity: 1613194000
m/z	relative intensity
51.9791	25
53.8336	27
60.5699	25
69.0342	516
70.2726	26
72.9143	30
107.3223	26
127.2954	26
133.0651	109
140.2247	26
147.0436	26
155.0861	36
157.1004	40
183.0792	123
185.095	60
187.0764	116
199.0741	33
201.0899	146
211.0753	250
213.0906	177
215.0691	171
225.1792	27
229.0846	578
239.0717	283
245.083	42
247.0964	245
257.0821	999
275.091	204
361.1289	114
