Mass spectrum: Malondialdehyde; LC-ESI-ITFT; MS2; CE: 100;  [M-H]-
Name: Malondialdehyde
Class: Organic oxygen compounds; Organooxygen compounds; Carbonyl compounds
Formula: C3H4O2
Exact mass: 72.02113
SMILES: O=CCC=O
InChI: InChI=1S/C3H4O2/c4-2-1-3-5/h2-3H,1H2
Instrument: Thermo Scientific Q-Exactive Focus
Instrument type: LC-ESI-ITFT
Ms type: MS2
Ion mode: NEGATIVE
Ionization: ESI
Collision energy: 100
Column name: Acquity CSHC18
Retention time: 2.586 min
Base peak: 71.01385
Precursor m/z: 71.01385
Precursor type: [M-H]-
m/z	relative intensity
63.0593	999
67.323	928
68.1704	922
69.7773	914
74.0501	971
74.3467	930
75.2897	903
78.4467	975
80.3743	930
84.7348	899
