Mass spectrum: DEOXYADENOSINE MONOPHOSPHATE; LC-ESI-QFT; MS2; CE: 30eV;  [M-H]-
Name: DEOXYADENOSINE MONOPHOSPHATE
Class: NA
Formula: C10H14N5O6P
Exact mass: 331.06817
SMILES: NC1=NC=NC2=C1N=CN2[C@H]1C[C@H](O)[C@@H](COP(O)(O)=O)O1
InChI: InChI=1S/C10H14N5O6P/c11-9-8-10(13-3-12-9)15(4-14-8)7-1-5(16)6(21-7)2-20-22(17,18)19/h3-7,16H,1-2H2,(H2,11,12,13)(H2,17,18,19)/t5-,6+,7+/m0/s1
Instrument: Q-Exactive Orbitrap, Thermo Scientfic; Ultimate 3000 HPLC, Thermo Scientfic
Instrument type: LC-ESI-QFT
Ms type: MS2
Ion mode: NEGATIVE
Ionization: ESI
Collision energy: 30eV
Column name: Acquity CSHC18
Retention time: 0.855 min
Base peak: 330.0609
Precursor m/z: 330.0609
Precursor type: [M-H]-
Precursor intensity: 141
m/z	relative intensity
50.0488	4
56.2846	4
70.8342	4
72.4693	5
72.8147	4
78.9574	999
93.7081	5
96.968	486
105.6624	5
134.0457	564
135.0491	12
148.8046	5
149.7866	5
150.979	12
160.0616	11
167.3457	5
176.9947	232
177.0022	9
186.0519	5
190.1937	5
195.0054	456
196.0086	12
214.0728	25
279.1307	5
330.0607	111
331.0642	9
336.0225	5
