Mass spectrum: L-Phenylalanine; LC-ESI-ITFT; MS2; CE: 30;  [M-H]-
Name: L-Phenylalanine
Class: Organic acids and derivatives; Carboxylic acids and derivatives; Amino acids, peptides, and analogues
Formula: C9H11NO2
Exact mass: 165.07898
SMILES: N[C@@H](CC1=CC=CC=C1)C(O)=O
InChI: InChI=1S/C9H11NO2/c10-8(9(11)12)6-7-4-2-1-3-5-7/h1-5,8H,6,10H2,(H,11,12)/t8-/m0/s1
Instrument: Thermo Scientific Q-Exactive Focus
Instrument type: LC-ESI-ITFT
Ms type: MS2
Ion mode: NEGATIVE
Ionization: ESI
Collision energy: 30
Column name: Acquity CSHC18
Retention time: 0.926 min
Base peak: 164.07170
Precursor m/z: 164.07170
Precursor type: [M-H]-
m/z	relative intensity
61.9871	138
65.906	38
72.0079	452
78.9578	999
79.9561	112
92.5139	73
96.9589	488
108.9363	242
118.2054	36
164.6012	34
