Mass spectrum: 2-Aminoanthracene; LC-ESI-ITFT; MS2; CE: 10;  [M+H]+
Name: 2-Aminoanthracene
Class: NA
Formula: C14H11N
Exact mass: 193.08915
SMILES: C1=CC=C2C=C3C=C(C=CC3=CC2=C1)N
InChI: InChI=1S/C14H11N/c15-14-6-5-12-7-10-3-1-2-4-11(10)8-13(12)9-14/h1-9H,15H2
Instrument: Thermo Scientific Q-Exactive Focus
Instrument type: LC-ESI-ITFT
Ms type: MS2
Ion mode: POSITIVE
Ionization: ESI
Collision energy: 10
Column name: Acquity CSHC18
Retention time: 0.348 min
Base peak: 194.09644
Precursor m/z: 194.09644
Precursor type: [M+H]+
m/z	relative intensity
85.3926	1
153.0699	11
167.0856	3
176.0618	3
177.0698	16
181.0648	9
193.0889	12
194.0966	999
194.1176	2
195.0802	2
