Mass spectrum: D-erythro-sphingosine; ESI-TOF; MS2; CE: 0.6458333;  [M+H]+
Name: D-erythro-sphingosine
Class: NA
Formula: C18H37NO2
Exact mass: 299.28243
SMILES: OC[C@H](N)[C@H](O)/C=C/CCCCCCCCCCCCC
InChI: InChI=1S/C18H37NO2/c1-2-3-4-5-6-7-8-9-10-11-12-13-14-15-18(21)17(19)16-20/h14-15,17-18,20-21H,2-13,16,19H2,1H3/b15-14+/t17-,18+/m0/s1
Instrument: waters xevo g2 TOF
Instrument type: ESI-TOF
Ms type: MS2
Ion mode: POSITIVE
Ionization: ESI
Collision energy: 0.6458333
Column name: Acquity CSHC18
Retention time: 4.122 min
Base peak: 300.29043
Precursor m/z: 300.29043
Precursor type: [M+H]+
m/z	relative intensity
55.0553	7
56.0508	8
60.0455	3
67.0552	61
68.0506	4
69.0708	73
70.0663	15
71.0863	19
72.0452	12
74.0609	6
79.055	68
81.0708	125
82.0662	71
83.0864	101
85.1017	20
86.0606	32
91.0551	13
93.0702	98
94.0723	7
95.0861	146
96.085	54
97.102	76
98.1034	7
100.0759	16
105.0717	2
107.086	57
109.1015	65
110.0984	19
111.1173	16
114.0914	3
119.0497	2
121.1013	57
123.1167	18
135.1174	34
137.1322	5
138.1287	2
149.133	9
151.1476	2
156.1732	1
170.1906	5
184.2067	9
198.2215	4
210.2214	3
211.2067	6
212.2249	2
226.2536	2
236.2384	5
238.2537	3
252.2693	304
253.2727	60
254.2778	8
262.254	23
263.2535	4
264.2692	277
265.2637	72
266.2656	5
277.1848	5
282.2796	999
283.2831	210
284.2861	25
