Mass spectrum: Creatine; ESI-TOF; MS2; CE: 0.6458333;  [M+H]+
Name: Creatine
Class: NA
Formula: C4H9N3O2
Exact mass: 131.06948
SMILES: CN(CC(O)=O)C(N)=N
InChI: InChI=1S/C4H9N3O2/c1-7(4(5)6)2-3(8)9/h2H2,1H3,(H3,5,6)(H,8,9)
Instrument: waters xevo g2 TOF
Instrument type: ESI-TOF
Ms type: MS2
Ion mode: POSITIVE
Ionization: ESI
Collision energy: 0.6458333
Column name: Acquity CSHC18
Retention time: 0.530 min
Base peak: 132.07748
Precursor m/z: 132.07748
Precursor type: [M+H]+
m/z	relative intensity
87.0565	127
91.0592	84
97.9696	999
98.9625	1
114.0674	81
115.0704	1
119.9757	1
123.1195	12
128.0212	1
130.0166	6
132.1798	523
133.0803	82
134.082	1
135.9927	1
138.9899	1
143.0154	18
144.9612	1
146.0934	1
147.9582	1
152.0137	17
154.0594	284
155.0126	8
158.9939	1
159.9693	1
170.0011	25
175.9834	1
186.056	15
192.1596	1
202.8752	13
213.0409	12
217.1051	1
217.8592	31
228.0779	71
229.0875	14
249.1072	1
259.0644	10
263.1472	182
264.1528	1
265.0733	17
280.0374	28
281.0444	116
282.0458	12
283.0814	14
285.1288	125
286.1287	1
287.1055	22
298.0482	25
299.0561	82
316.0579	49
317.0647	52
393.0967	65
394.0987	18
411.1068	75
416.198	1
430.1256	1
432.1645	22
447.1286	1
448.133	37
450.1365	1
525.2852	1
526.2863	1
547.2746	10
548.2694	1
563.2338	1
578.1963	45
579.2033	1
580.2081	1
581.2041	1
583.2013	1
678.3385	1
809.4078	1
810.4084	1
840.322	1
