Mass spectrum: Gentisic acid; LC-ESI-ITFT; MS2; CE: 60;  [M-H]-
Name: Gentisic acid
Class: Benzenoids; Benzene and substituted derivatives; Benzoic acids and derivatives
Formula: C7H6O4
Exact mass: 154.02661
SMILES: OC(=O)C1=C(O)C=CC(O)=C1
InChI: InChI=1S/C7H6O4/c8-4-1-2-6(9)5(3-4)7(10)11/h1-3,8-9H,(H,10,11)
Instrument: Thermo Scientific Q-Exactive Focus
Instrument type: LC-ESI-ITFT
Ms type: MS2
Ion mode: NEGATIVE
Ionization: ESI
Collision energy: 60
Column name: Acquity CSHC18
Retention time: 2.026 min
Base peak: 153.01933
Precursor m/z: 153.01933
Precursor type: [M-H]-
m/z	relative intensity
57.135	766
57.8899	793
69.0479	790
71.4085	784
72.362	856
79.3613	825
96.4192	880
145.1413	999
151.3051	938
164.4332	946
