Mass spectrum: Epinephrine; LC-ESI-ITFT; MS2; CE: 10;  [M-H]-
Name: Epinephrine
Class: Benzenoids; Phenols; Benzenediols
Formula: C9H13NO3
Exact mass: 183.08954
SMILES: CNC[C@H](O)C1=CC(O)=C(O)C=C1
InChI: InChI=1S/C9H13NO3/c1-10-5-9(13)6-2-3-7(11)8(12)4-6/h2-4,9-13H,5H2,1H3/t9-/m0/s1
Instrument: Thermo Scientific Q-Exactive Focus
Instrument type: LC-ESI-ITFT
Ms type: MS2
Ion mode: NEGATIVE
Ionization: ESI
Collision energy: 10
Column name: Acquity CSHC18
Retention time: 0.360 min
Base peak: 182.08228
Precursor m/z: 182.08228
Precursor type: [M-H]-
m/z	relative intensity
122.0362	62
135.0439	4
137.0232	8
138.9057	5
149.0472	45
154.01	5
162.0551	6
164.0708	999
182.0051	8
182.0814	150
