Mass spectrum: 3-hydroxy-5-cholestenoic acid; ESI-TOF; MS2; CE: 6.0000000;  [M+H]+
Name: 3-hydroxy-5-cholestenoic acid
Class: NA
Formula: C27H44O3
Exact mass: 416.32905
SMILES: [H]OC(=O)C([H])(C([H])([H])[H])C([H])([H])C([H])([H])C([H])([H])C([H])(C([H])([H])[H])C2([H])(C([H])([H])C([H])([H])C3([H])(C4([H])(C([H])([H])C([H])=C1C([H])([H])C([H])(O[H])C([H])([H])C([H])([H])C1(C([H])([H])[H])C4([H])(C([H])([H])C([H])([H])C23(C([H])([H])[H])))))
InChI: InChI=1S/C27H44O3/c1-17(6-5-7-18(2)25(29)30)22-10-11-23-21-9-8-19-16-20(28)12-14-26(19,3)24(21)13-15-27(22,23)4/h8,17-18,20-24,28H,5-7,9-16H2,1-4H3,(H,29,30)
Instrument: waters xevo g2 TOF
Instrument type: ESI-TOF
Ms type: MS2
Ion mode: POSITIVE
Ionization: ESI
Collision energy: 6.0000000
Column name: Acquity CSHC18
Retention time: 8.358 min
Base peak: 417.33705
Precursor m/z: 417.33705
Precursor type: [M+H]+
m/z	relative intensity
121.1019	2
133.1013	1
135.117	9
147.1173	5
149.1328	5
161.1328	15
175.1485	9
209.1536	2
215.1798	6
217.1961	6
223.1695	8
235.1706	4
237.185	6
243.2112	15
249.1859	11
251.2011	9
257.227	7
263.2007	6
289.2168	4
317.2477	8
318.2514	2
337.2708	5
351.249	2
353.2652	2
381.3148	16
382.3189	3
397.31	38
398.3146	14
399.3264	999
400.3296	312
401.3322	51
402.3385	2
415.3209	10
416.3252	3
