Mass spectrum: Hypotaurine; LC-ESI-ITFT; MS2; CE: 60;  [M-H]-
Name: Hypotaurine
Class: Organic acids and derivatives; Sulfinic acids and derivatives; Sulfinic acids
Formula: C2H7NO2S
Exact mass: 109.01975
SMILES: NCCS(O)=O
InChI: InChI=1S/C2H7NO2S/c3-1-2-6(4)5/h1-3H2,(H,4,5)
Instrument: Thermo Scientific Q-Exactive Focus
Instrument type: LC-ESI-ITFT
Ms type: MS2
Ion mode: NEGATIVE
Ionization: ESI
Collision energy: 60
Column name: Acquity CSHC18
Retention time: 1.762 min
Base peak: 108.01247
Precursor m/z: 108.01247
Precursor type: [M-H]-
m/z	relative intensity
55.4947	25
63.9612	999
72.2552	23
86.2373	25
89.2949	28
97.4379	23
111.3693	23
113.8762	25
125.1429	24
125.7155	24
