Mass spectrum: GUANOSINE TRIPHOSPHATE; LC-ESI-QTOF; MS2; CE: -10, -35, -60V;  [M-H]-
Name: GUANOSINE TRIPHOSPHATE
Class: NA
Formula: C10H16N5O14P3
Exact mass: 522.9907
SMILES: C1=NC2=C(N1C3C(C(C(O3)COP(=O)(O)OP(=O)(O)OP(=O)(O)O)O)O)NC(=NC2=O)N
InChI: InChI=1S/C10H16N5O14P3/c11-10-13-7-4(8(18)14-10)12-2-15(7)9-6(17)5(16)3(27-9)1-26-31(22,23)29-32(24,25)28-30(19,20)21/h2-3,5-6,9,16-17H,1H2,(H,22,23)(H,24,25)(H2,19,20,21)(H3,11,13,14,18)
Instrument: TripleToF 5600; Sciex
Instrument type: LC-ESI-QTOF
Ms type: MS2
Ion mode: NEGATIVE
Ionization: ESI
Collision energy: -10, -35, -60V
Column name: Acquity CSHC18
Retention time: 15.270 min
Base peak: 521.9879
Precursor m/z: 521.9879
Precursor type: [M-H]-
Precursor intensity: 154366.6
m/z	relative intensity
78.9594	449
133.0117	10
150.0298	6
150.0419	107
158.9264	999
176.9378	105
238.8898	67
272.959	86
344.0274	10
344.0431	59
424.0065	276
442.022	77
503.9803	22
521.9905	322
