Mass spectrum: 2-isopropyl-malic acid; LC-ESI-QTOF; MS2; CE: -10, -35, -60V;  [M-H]-
Name: 2-isopropyl-malic acid
Class: NA
Formula: C7H12O5
Exact mass: 176.0685
SMILES: CC(C)C(CC(=O)O)(C(=O)O)O
InChI: InChI=1S/C7H12O5/c1-4(2)7(12,6(10)11)3-5(8)9/h4,12H,3H2,1-2H3,(H,8,9)(H,10,11)
Instrument: TripleToF 5600; Sciex
Instrument type: LC-ESI-QTOF
Ms type: MS2
Ion mode: NEGATIVE
Ionization: ESI
Collision energy: -10, -35, -60V
Column name: Acquity CSHC18
Retention time: 11.114 min
Base peak: 175.0600
Precursor m/z: 175.0600
Precursor type: [M-H]-
Precursor intensity: 883335.5
m/z	relative intensity
85.0677	213
113.0622	174
114.07	16
115.0415	395
116.043	38
129.0572	32
131.076	50
157.0505	165
158.0569	13
174.5278	34
174.9607	3
175.0616	999
