Mass spectrum: 24:0(2R-OH) Ceramide; ESI-TOF; MS2; CE: 0.6458333;  [M+H]+
Name: 24:0(2R-OH) Ceramide
Class: NA
Formula: C42H83NO4
Exact mass: 665.63221
SMILES: [H]OC([H])([H])C([H])(N([H])C(=O)C([H])(O[H])C([H])([H])C([H])([H])C([H])([H])C([H])([H])C([H])([H])C([H])([H])C([H])([H])C([H])([H])C([H])([H])C([H])([H])C([H])([H])C([H])([H])C([H])([H])C([H])([H])C([H])([H])C([H])([H])C([H])([H])C([H])([H])C([H])([H])C([H])([H])C([H])([H])C([H])([H])[H])C([H])(O[H])C([H])=C([H])C([H])([H])C([H])([H])C([H])([H])C([H])([H])C([H])([H])C([H])([H])C([H])([H])C([H])([H])C([H])([H])C([H])([H])C([H])([H])C([H])([H])C([H])([H])[H]
InChI: InChI=1S/C42H83NO4/c1-3-5-7-9-11-13-15-17-18-19-20-21-22-23-25-27-29-31-33-35-37-41(46)42(47)43-39(38-44)40(45)36-34-32-30-28-26-24-16-14-12-10-8-6-4-2/h34,36,39-41,44-46H,3-33,35,37-38H2,1-2H3,(H,43,47)
Instrument: waters xevo g2 TOF
Instrument type: ESI-TOF
Ms type: MS2
Ion mode: POSITIVE
Ionization: ESI
Collision energy: 0.6458333
Column name: Acquity CSHC18
Retention time: 12.326 min
Base peak: 666.64021
Precursor m/z: 666.64021
Precursor type: [M+H]+
m/z	relative intensity
214.9181	1
252.2697	215
264.2682	57
264.2687	999
265.2719	181
282.2807	111
328.7876	43
352.7985	1
353.2999	1
384.3842	38
448.3473	73
464.3155	31
473.3175	21
618.6202	166
619.6198	27
621.49	46
630.6198	489
631.6208	204
648.6288	909
649.6323	433
650.6369	96
666.6383	146
667.6421	68
668.6454	1
685.4206	227
685.6121	405
686.1146	264
686.6154	98
687.118	29
687.6153	26
688.6215	35
689.6244	799
690.6269	231
691.6294	33
694.1023	1
694.6002	8
704.5891	38
704.5915	48
747.3912	20
750.5914	148
751.5953	80
752.5934	27
766.5618	15
767.566	10
1018.429	400
1018.9293	525
1019.432	402
1019.9342	183
1020.4322	79
1027.4167	15
1037.905	52
