Mass spectrum: N-Arachidonoyldopamine; LC-ESI-ITFT; MS2; CE: 60;  [M+H]+
Name: N-Arachidonoyldopamine
Class: NA
Formula: C28H41NO3
Exact mass: 439.30864
SMILES: CCCCC/C=C\C/C=C\C/C=C\C/C=C\CCCC(=O)NCCC1=CC(=C(C=C1)O)O
InChI: InChI=1S/C28H41NO3/c1-2-3-4-5-6-7-8-9-10-11-12-13-14-15-16-17-18-19-28(32)29-23-22-25-20-21-26(30)27(31)24-25/h6-7,9-10,12-13,15-16,20-21,24,30-31H,2-5,8,11,14,17-19,22-23H2,1H3,(H,29,32)/b7-6-,10-9-,13-12-,16-15-
Instrument: Thermo Scientific Q-Exactive Focus
Instrument type: LC-ESI-ITFT
Ms type: MS2
Ion mode: POSITIVE
Ionization: ESI
Collision energy: 60
Column name: Acquity CSHC18
Retention time: 2.014 min
Base peak: 440.31592
Precursor m/z: 440.31592
Precursor type: [M+H]+
m/z	relative intensity
55.0548	83
56.9653	84
67.0547	223
79.0546	168
81.0702	167
91.0545	999
93.0702	132
105.07	172
119.0492	326
137.0596	801
