Mass spectrum: Selenocystine; ESI-TOF; MS2; CE: 6.0000000;  [M+H]+
Name: Selenocystine
Class: NA
Formula: C6H12N2O4Se2
Exact mass: 335.91275
SMILES: NC(C[Se][Se]CC(N)C(O)=O)C(O)=O
InChI: InChI=1S/C6H12N2O4Se2/c7-3(5(9)10)1-13-14-2-4(8)6(11)12/h3-4H,1-2,7-8H2,(H,9,10)(H,11,12)
Instrument: waters xevo g2 TOF
Instrument type: ESI-TOF
Ms type: MS2
Ion mode: POSITIVE
Ionization: ESI
Collision energy: 6.0000000
Column name: Acquity CSHC18
Retention time: 0.537 min
Base peak: 336.92075
Precursor m/z: 336.92075
Precursor type: [M+H]+
m/z	relative intensity
74.0244	3
88.0397	58
96.9612	183
96.9613	196
97.969	3
101.9403	3
113.9641	394
129.052	99
135.992	119
137.9879	999
170.9824	60
236.9383	61
236.9387	81
236.9401	83
241.8777	61
243.8751	256
245.8743	580
247.8739	471
249.8741	153
332.9228	82
333.9246	46
334.9224	138
336.9195	196
338.9217	51
