Mass spectrum: 16,16-dimethyl Prostaglandin F2-alpha; ESI-TOF; MS2; CE: 6.0000000;  [M+H]+
Name: 16,16-dimethyl Prostaglandin F2-alpha
Class: NA
Formula: C22H38O5
Exact mass: 382.27192
SMILES: CCCCC(C)(C)C(C=CC1C(CC(C1CC=CCCCC(=O)O)O)O)O
InChI: InChI=1S/C22H38O5/c1-4-5-14-22(2,3)20(25)13-12-17-16(18(23)15-19(17)24)10-8-6-7-9-11-21(26)27/h6,8,12-13,16-20,23-25H,4-5,7,9-11,14-15H2,1-3H3,(H,26,27)
Instrument: waters xevo g2 TOF
Instrument type: ESI-TOF
Ms type: MS2
Ion mode: POSITIVE
Ionization: ESI
Collision energy: 6.0000000
Column name: Acquity CSHC18
Retention time: 4.140 min
Base peak: 383.27992
Precursor m/z: 383.27992
Precursor type: [M+H]+
m/z	relative intensity
121.1021	8
149.1147	4
157.1031	3
163.1125	21
167.1068	5
175.1113	13
179.1078	5
181.1218	80
185.1137	8
187.1125	25
188.1166	2
191.1067	10
195.1335	20
196.1374	2
199.1131	29
200.1132	5
203.1075	39
205.1223	48
206.1327	2
207.1367	6
215.1483	2
217.1601	75
218.1267	12
219.1374	17
221.1172	20
231.1755	48
232.1414	9
235.1329	87
236.1361	8
249.1499	41
250.1514	4
251.1988	6
253.1416	9
257.2279	2
261.1815	3
273.1807	8
275.2357	11
285.2209	49
286.2239	6
289.1091	5
291.2322	61
292.2355	9
293.2457	78
294.2421	9
303.2326	78
304.2342	13
311.2377	72
312.2386	15
319.2414	15
321.2409	24
327.2298	5
329.2475	921
330.2512	210
331.2595	64
332.2542	2
345.2403	18
346.2365	4
347.2591	999
348.2624	241
349.2715	38
359.2266	4
361.2754	2
363.2543	22
365.269	334
366.2735	81
367.274	9
375.1616	89
379.2832	3
381.2643	13
