Mass spectrum: alpha-Linolenic acid; LC-ESI-ITFT; MS2; CE: 60;  [M+H]+
Name: alpha-Linolenic acid
Class: Lipids and lipid-like molecules; Fatty Acyls; Lineolic acids and derivatives
Formula: C18H30O2
Exact mass: 278.22458
SMILES: CC\C=C/C\C=C/C\C=C/CCCCCCCC(O)=O
InChI: InChI=1S/C18H30O2/c1-2-3-4-5-6-7-8-9-10-11-12-13-14-15-16-17-18(19)20/h3-4,6-7,9-10H,2,5,8,11-17H2,1H3,(H,19,20)/b4-3-,7-6-,10-9-
Instrument: Thermo Scientific Q-Exactive Focus
Instrument type: LC-ESI-ITFT
Ms type: MS2
Ion mode: POSITIVE
Ionization: ESI
Collision energy: 60
Column name: Acquity CSHC18
Retention time: 2.017 min
Base peak: 279.23187
Precursor m/z: 279.23187
Precursor type: [M+H]+
m/z	relative intensity
53.0028	68
53.0392	98
55.0548	224
65.0391	236
67.0548	999
79.0547	315
81.0703	349
91.0546	102
95.0495	71
95.0859	67
