Mass spectrum: 6-Hydroxyindole; LC-ESI-QTOF; MS2; CE: 15.00;  [M+H]+
Name: 6-Hydroxyindole
Class: NA
Formula: C8H7NO
Exact mass: 133.0528
SMILES: C1=CC(=CC2=C1C=CN2)O
InChI: InChI=1S/C8H7NO/c10-7-2-1-6-3-4-9-8(6)5-7/h1-5,9-10H
Instrument: Bruker MicrOTOF-Q
Instrument type: LC-ESI-QTOF
Ms type: MS2
Ion mode: POSITIVE
Ionization: ESI
Collision energy: 15.00
Column name: Acquity CSHC18
Retention time: NA
Base peak: 134.0600
Precursor m/z: 134.0600
Precursor type: [M+H]+
m/z	relative intensity
106.0603	49
107.0451	90
108.0497	113
116.0455	131
117.0513	244
133.0482	443
134.0567	764
135.0602	999
