Mass spectrum: Cortexolone; LC-ESI-ITFT; MS2; CE: 30;  [M-H]-
Name: Cortexolone
Class: Lipids and lipid-like molecules; Steroids and steroid derivatives; Hydroxysteroids
Formula: C21H30O4
Exact mass: 346.21441
SMILES: [H][C@@]12CC[C@](O)(C(=O)CO)[C@@]1(C)CC[C@@]1([H])[C@@]2([H])CCC2=CC(=O)CC[C@]12C
InChI: InChI=1S/C21H30O4/c1-19-8-5-14(23)11-13(19)3-4-15-16(19)6-9-20(2)17(15)7-10-21(20,25)18(24)12-22/h11,15-17,22,25H,3-10,12H2,1-2H3/t15-,16+,17+,19+,20+,21+/m1/s1
Instrument: Thermo Scientific Q-Exactive Focus
Instrument type: LC-ESI-ITFT
Ms type: MS2
Ion mode: NEGATIVE
Ionization: ESI
Collision energy: 30
Column name: Acquity CSHC18
Retention time: 0.930 min
Base peak: 345.20712
Precursor m/z: 345.20712
Precursor type: [M-H]-
m/z	relative intensity
123.0804	30
271.1704	34
282.9948	37
283.1706	46
285.1857	126
299.1649	999
313.1807	429
315.1961	177
327.1959	69
347.1858	40
