Mass spectrum: 5-HYDROXYLYSINE; LC-ESI-QTOF; MS2; CE: 10;  [M+H]+
Name: 5-HYDROXYLYSINE
Class: NA
Formula: C6H14N2O3
Exact mass: 162.10044
SMILES: NC[C@H](O)CC[C@H](N)C(O)=O
InChI: InChI=1S/C6H14N2O3/c7-3-4(9)1-2-5(8)6(10)11/h4-5,9H,1-3,7-8H2,(H,10,11)/t4-,5+/m1/s1
Instrument: Agilent 6530Â Q-TOF LC/MS
Instrument type: LC-ESI-QTOF
Ms type: MS2
Ion mode: POSITIVE
Ionization: ESI
Collision energy: 10
Column name: NA
Retention time: 0.200 min
Base peak: 163.10814
Precursor m/z: 163.10814
Precursor type: [M+H]+
Precursor intensity: 120.5
m/z	relative intensity
41.0402	21
42.0393	21
43.0486	22
44.0489	22
45.0415	22
46.0296	24
55.1066	27
56.0724	27
65.0417	28
67.0584	30
70.0717	32
74.0576	35
80.0463	39
82.1131	43
82.3053	44
82.4484	45
83.0479	45
84.101	49
99.079	120
100.1051	181
101.0621	221
110.0543	229
127.093	250
128.117	374
128.4999	422
145.1261	448
146.1012	990
163.1377	999
