Mass spectrum: Hymecromone; LC-ESI-ITFT; MS2; CE: 45eV;  [M-H]-
Name: Hymecromone
Class: coumarin
Formula: C10H8O3
Exact mass: 176.0473
SMILES: CC1=CC(=O)OC2=C1C=CC(=C2)O
InChI: InChI=1S/C10H8O3/c1-6-4-10(12)13-9-5-7(11)2-3-8(6)9/h2-5,11H,1H3
Instrument: LTQ Orbitrap XL, Thermo Scientfic; Dionex Ultimate 300
Instrument type: LC-ESI-ITFT
Ms type: MS2
Ion mode: NEGATIVE
Ionization: ESI
Collision energy: 45eV
Column name: Alltima C18
Retention time: 18.48 min
Base peak: 175.0391
Precursor m/z: 175.0391
Precursor type: [M-H]-
m/z	relative intensity
116.4171	24
120.7921	24
129.746	24
130.9522	999
132.9647	146
144.7372	24
146.9757	389
156.7608	24
157.3707	24
175.0348	316
