Mass spectrum: LIPOAMIDE; LC-ESI-QTOF; MS2; CE: 40;  [M+H]+
Name: LIPOAMIDE
Class: NA
Formula: C8H15NOS2
Exact mass: 205.05951
SMILES: NC(=O)CCCCC1CCSS1
InChI: InChI=1S/C8H15NOS2/c9-8(10)4-2-1-3-7-5-6-11-12-7/h7H,1-6H2,(H2,9,10)
Instrument: Agilent 6530Â Q-TOF LC/MS
Instrument type: LC-ESI-QTOF
Ms type: MS2
Ion mode: POSITIVE
Ionization: ESI
Collision energy: 40
Column name: NA
Retention time: 0.200 min
Base peak: 206.06511
Precursor m/z: 206.06511
Precursor type: [M+H]+
Precursor intensity: 66.5
m/z	relative intensity
41.0623	23
42.0208	24
43.0487	24
44.0338	24
45.0012	25
45.9947	25
47.0128	26
50.0142	26
51.0347	27
53.0605	27
54.0377	27
55.0833	27
55.3537	28
55.6547	28
56.0638	29
57.0529	30
59.0373	31
59.9945	31
61.0333	32
63.9416	32
65.0201	32
66.0624	32
67.0817	34
68.0592	35
68.9724	36
69.0796	36
70.0667	37
71.0101	41
72.0328	42
73.0284	42
77.072	42
77.2834	42
77.412	44
78.0587	54
79.0446	59
79.3731	62
79.4983	63
80.0665	70
81.0825	77
82.0582	83
83.0815	84
84.0428	85
85.044	103
86.0571	104
87.033	104
91.0855	113
91.2798	125
92.0534	143
92.9823	145
93.1011	149
94.0741	152
95.1053	154
97.0348	166
98.0899	172
99.0436	195
101.0729	217
103.0322	243
105.0615	246
106.074	263
108.0486	279
109.0188	308
110.0385	313
111.0236	364
113.0405	407
115.0572	431
118.9939	438
120.0779	472
123.0318	528
127.0563	529
135.0332	542
137.0552	617
138.0433	645
142.9991	919
147.0295	999
161.0347	23
