Mass spectrum: Fluprostenol serinol amide; ESI-TOF; MS2; CE: 6.0000000;  [M+H]+
Name: Fluprostenol serinol amide
Class: NA
Formula: C26H36F3NO7
Exact mass: 531.24439
SMILES: O[C@H](/C=C/[C@@H]1[C@@H](C/C=C\CCCC(N([H])C(CO)CO)=O)[C@@H](O)C[C@H]1O)COC2=CC=CC(C(F)(F)F)=C2
InChI: InChI=1S/C26H36F3NO7/c27-26(28,29)17-6-5-7-20(12-17)37-16-19(33)10-11-22-21(23(34)13-24(22)35)8-3-1-2-4-9-25(36)30-18(14-31)15-32/h1,3,5-7,10-12,18-19,21-24,31-35H,2,4,8-9,13-16H2,(H,30,36)/b3-1-,11-10+/t19-,21-,22-,23+,24-/m1/s1
Instrument: waters xevo g2 TOF
Instrument type: ESI-TOF
Ms type: MS2
Ion mode: POSITIVE
Ionization: ESI
Collision energy: 6.0000000
Column name: Acquity CSHC18
Retention time: 3.328 min
Base peak: 532.25239
Precursor m/z: 532.25239
Precursor type: [M+H]+
m/z	relative intensity
92.0713	21
147.1168	3
158.0817	42
159.1593	2
171.1166	2
176.9854	1
179.1103	4
189.1285	63
190.1329	3
207.1288	4
225.1288	15
237.5833	36
245.5677	6
246.5882	196
247.0898	19
248.599	1
254.5748	18
255.5934	59
256.0959	21
256.5906	12
257.5932	1
262.181	73
263.1844	9
280.1909	304
281.1971	55
282.1948	2
285.5998	2
290.1772	8
298.1795	21
308.1863	4
316.1912	541
317.1937	98
318.1966	7
334.2016	594
335.2043	126
352.2115	276
353.2137	49
354.2152	3
372.1497	4
388.1265	3
478.2178	4
496.2311	19
497.2393	3
514.2404	257
515.2389	59
516.2453	8
532.2517	999
533.2528	303
