Mass spectrum: Tomentosin-Glutathione; LC-ESI-ITFT; MS2; CE: 50eV;  [M+H]+
Name: Tomentosin-Glutathione
Class: Sesquiterpenelactone; Xanthanolide
Formula: C25H37N3O9S
Exact mass: 555.2251
SMILES: O=C(O)[C@@H](N)CCC(=O)N[C@@H](CSCC1C(=O)O[C@@H]2CC(C)C(=CC[C@H]12)CCC(C)=O)C(=O)NCC(=O)O
InChI: InChI=1S/C25H37N3O9S/c1-13-9-20-16(6-5-15(13)4-3-14(2)29)17(25(36)37-20)11-38-12-19(23(33)27-10-22(31)32)28-21(30)8-7-18(26)24(34)35/h5,13,16-20H,3-4,6-12,26H2,1-2H3,(H,27,33)(H,28,30)(H,31,32)(H,34,35)/t13?,16-,17?,18+,19+,20-/m1/s1
Instrument: Q Exactive Plus, ThermoFisher Scientific
Instrument type: LC-ESI-ITFT
Ms type: MS2
Ion mode: POSITIVE
Ionization: ESI
Collision energy: 50eV
Column name: Acquity CSHC18
Retention time: 5.393 min
Base peak: 556.2332
Precursor m/z: 556.2332
Precursor type: [M+H]+
Precursor intensity: 269614300
m/z	relative intensity
85.0385	117
145.0806	207
177.0998	314
203.1166	434
231.1122	999
