Mass spectrum: Creatine; ESI-TOF; MS2; CE: 6.0000000;  [M+H]+
Name: Creatine
Class: NA
Formula: C4H9N3O2
Exact mass: 131.06948
SMILES: CN(CC(O)=O)C(N)=N
InChI: InChI=1S/C4H9N3O2/c1-7(4(5)6)2-3(8)9/h2H2,1H3,(H3,5,6)(H,8,9)
Instrument: waters xevo g2 TOF
Instrument type: ESI-TOF
Ms type: MS2
Ion mode: POSITIVE
Ionization: ESI
Collision energy: 6.0000000
Column name: Acquity CSHC18
Retention time: 0.530 min
Base peak: 132.07748
Precursor m/z: 132.07748
Precursor type: [M+H]+
m/z	relative intensity
87.0565	11
97.9696	26
98.9625	2
114.0674	202
115.0704	11
130.0166	1
132.1798	999
133.0803	191
134.082	18
135.9927	1
138.9899	1
144.9612	1
146.0934	10
154.0594	25
155.0126	1
159.9693	6
175.9834	2
217.1051	4
263.1472	26
264.1528	2
285.1288	13
286.1287	1
287.1055	1
316.0579	6
317.0647	1
411.1068	7
416.198	8
430.1256	1
447.1286	4
448.133	5
450.1365	1
525.2852	6
526.2863	1
547.2746	3
563.2338	1
578.1963	9
579.2033	8
580.2081	1
581.2041	1
678.3385	3
809.4078	1
840.322	2
