Mass spectrum: Genistein; ESI-TOF; MS2; CE: 6.0000000;  [M+H]+
Name: Genistein
Class: NA
Formula: C15H10O5
Exact mass: 270.05282
SMILES: OC1=CC=C(C=C1)C1=COC2=CC(O)=CC(O)=C2C1=O
InChI: InChI=1S/C15H10O5/c16-9-3-1-8(2-4-9)11-7-20-13-6-10(17)5-12(18)14(13)15(11)19/h1-7,16-18H
Instrument: waters xevo g2 TOF
Instrument type: ESI-TOF
Ms type: MS2
Ion mode: POSITIVE
Ionization: ESI
Collision energy: 6.0000000
Column name: Acquity CSHC18
Retention time: 2.921 min
Base peak: 271.06082
Precursor m/z: 271.06082
Precursor type: [M+H]+
m/z	relative intensity
96.9621	9
113.9645	10
119.0496	1
137.0419	1
145.9557	1
153.036	3
155.0713	4
165.019	1
186.2222	1
196.0352	8
196.5363	1
236.0814	11
236.5853	1
237.0765	4
243.0658	4
245.113	3
261.0768	1
271.5508	999
