Mass spectrum: Vindoline; ESI-QTOF; MS2; CE: 30 eV;  [M+H]+
Name: Vindoline
Class: NA
Formula: C25H32N2O6
Exact mass: 456.2260
SMILES: CCC12C=CCN3CCC4(C=5C=CC(=CC5N(C)C4(C(C1(OC(C)=O)[H])(C(=O)OC)O)[H])OC)C23[H]
InChI: InChI=1S/C25H32N2O6/c1-6-23-10-7-12-27-13-11-24(19(23)27)17-9-8-16(31-4)14-18(17)26(3)20(24)25(30,22(29)32-5)21(23)33-15(2)28/h7-10,14,19-21,30H,6,11-13H2,1-5H3
Instrument: Synapt (HDMS 1st gen)
Instrument type: ESI-QTOF
Ms type: MS2
Ion mode: POSITIVE
Ionization: ESI
Collision energy: 30 eV
Column name: Acquity CSHC18
Retention time: 15.469 min
Base peak: 457.2321
Precursor m/z: 457.2321
Precursor type: [M+H]+
Precursor intensity: 46502.61
m/z	relative intensity
188.1075	33
397.2118	136
398.2147	465
439.2233	469
457.2314	999
