Mass spectrum: Coenzyme Q8(E. coli); ESI-TOF; MS2; CE: 6.0000000;  [M+H]+
Name: Coenzyme Q8(E. coli)
Class: NA
Formula: C49H74O4
Exact mass: 726.55871
SMILES: [H]C(=C(C([H])([H])[H])C([H])([H])C([H])([H])C([H])=C(C([H])([H])[H])C([H])([H])C([H])([H])C([H])=C(C([H])([H])[H])C([H])([H])C([H])([H])C([H])=C(C([H])([H])[H])C([H])([H])C([H])([H])C([H])=C(C([H])([H])[H])C([H])([H])C([H])([H])C([H])=C(C([H])([H])[H])C([H])([H])C([H])([H])C([H])=C(C([H])([H])[H])C([H])([H])C([H])([H])C([H])=C(C([H])([H])[H])C([H])([H])[H])C([H])([H])C=1C(=O)C(OC([H])([H])[H])=C(OC([H])([H])[H])C(=O)C=1C([H])([H])[H]
InChI: InChI=1S/C49H74O4/c1-36(2)20-13-21-37(3)22-14-23-38(4)24-15-25-39(5)26-16-27-40(6)28-17-29-41(7)30-18-31-42(8)32-19-33-43(9)34-35-45-44(10)46(50)48(52-11)49(53-12)47(45)51/h20,22,24,26,28,30,32,34H,13-19,21,23,25,27,29,31,33,35H2,1-12H3
Instrument: waters xevo g2 TOF
Instrument type: ESI-TOF
Ms type: MS2
Ion mode: POSITIVE
Ionization: ESI
Collision energy: 6.0000000
Column name: Acquity CSHC18
Retention time: 13.082 min
Base peak: 727.56671
Precursor m/z: 727.56671
Precursor type: [M+H]+
m/z	relative intensity
125.9867	37
139.9882	14
143.9971	17
145.9552	24
149.1325	12
177.1646	8
197.0815	276
198.0855	23
217.1972	7
383.2609	51
383.7623	16
537.3941	33
575.6233	14
577.4267	15
709.5534	15
710.5619	9
725.5455	21
726.5548	16
727.5665	999
728.5708	568
