Mass spectrum: 3',4',5,7-Tetrahydroxyflavone; LC-ESI-QTOF; MS2; CE: 15;  [M-H]-
Name: 3',4',5,7-Tetrahydroxyflavone
Class: NA
Formula: C15H10O6
Exact mass: 286.0477
SMILES: C1=CC(=C(C=C1C2=CC(=O)C3=C(C=C(C=C3O2)O)O)O)O
InChI: InChI=1S/C15H10O6/c16-8-4-11(19)15-12(20)6-13(21-14(15)5-8)7-1-2-9(17)10(18)3-7/h1-6,16-19H
Instrument: Bruker MicrOTOF-Q
Instrument type: LC-ESI-QTOF
Ms type: MS2
Ion mode: NEGATIVE
Ionization: ESI
Collision energy: 15
Column name: Acquity CSHC18
Retention time: NA
Base peak: 285.0405
Precursor m/z: 285.0405
Precursor type: [M-H]-
m/z	relative intensity
44.9044	7
45.5786	5
46.2015	7
49.4231	7
55.5999	7
61.7293	8
68.1142	8
75.334	7
79.9986	8
88.617	8
96.8482	9
121.2208	13
189.9436	32
260.6934	35
292.1363	999
302.3207	5
304.1672	5
305.8208	4
306.8551	4
307.6992	4
308.7781	4
310.3284	4
312.0479	6
312.9081	5
313.4642	7
314.1839	14
315.9134	7
318.1329	4
318.6012	4
321.8422	5
322.8186	5
324.1194	11
325.7833	4
328.9197	5
329.3357	5
330.1021	5
331.4104	9
333.7102	5
334.338	4
336.1988	9
338.063	7
340.9149	8
341.4712	8
342.7336	11
344.7688	7
347.8796	6
348.4444	10
350.0682	8
354.7533	4
358.9365	8
359.5551	7
361.5957	7
364.7249	7
365.8079	10
366.5512	6
367.8006	10
369.25	6
371.3262	7
375.6612	8
376.9668	7
378.8275	8
379.8731	10
384.4056	5
385.6251	8
386.6956	6
388.2261	10
390.5042	7
392.8316	5
394.1705	7
395.0962	7
396.2762	5
398.3955	7
398.8378	4
403.5827	7
408.6083	8
415.0776	8
415.5659	8
416.557	7
417.5726	5
422.9457	8
423.6588	10
425.1953	8
426.6391	8
428.5428	11
431.0667	14
432.1392	5
435.4982	6
436.9437	5
438.1941	5
446.113	8
447.2489	5
451.1218	9
451.8659	12
453.1155	8
456.776	5
457.8743	7
461.5261	10
464.9852	7
482.3102	7
491.7164	5
493.7675	7
495.4521	4
496.6442	6
498.1151	7
504.1686	7
504.7531	9
507.7807	8
518.5142	9
527.9693	8
533.0634	4
534.3767	5
539.3396	6
543.9471	6
552.8935	7
554.1972	11
575.3787	7
577.5307	5
596.0823	4
597.7631	8
609.8	6
625.3242	9
636.6842	5
638.0667	4
641.1593	8
642.3303	7
661.2105	7
670.9504	5
674.3038	6
704.9087	6
722.193	4
736.7053	5
743.5269	9
775.355	6
777.3504	8
818.081	8
835.9429	4
857.6769	8
864.4307	4
869.5961	5
887.3611	5
904.1048	7
919.7109	4
