Mass spectrum: Quercetin 3-rutinoside; LC-ESI-QFT; MS2; CE: NCE_15_30_72;  [M-H]-
Name: Quercetin 3-rutinoside
Class: NA
Formula: C27H30O16
Exact mass: 610.1534
SMILES: CC1C(C(C(C(O1)OCC2C(C(C(C(O2)OC3=C(OC4=CC(=CC(=C4C3=O)O)O)C5=CC(=C(C=C5)O)O)O)O)O)O)O)O
InChI: InChI=1S/C27H30O16/c1-8-17(32)20(35)22(37)26(40-8)39-7-15-18(33)21(36)23(38)27(42-15)43-25-19(34)16-13(31)5-10(28)6-14(16)41-24(25)9-2-3-11(29)12(30)4-9/h2-6,8,15,17-18,20-23,26-33,35-38H,7H2,1H3
Instrument: Thermo_Qexactive_Plus
Instrument type: LC-ESI-QFT
Ms type: MS2
Ion mode: NEGATIVE
Ionization: ESI
Collision energy: NCE_15_30_72
Column name: Acquity CSHC18
Retention time: 4.526 min
Base peak: 609.1472
Precursor m/z: 609.1472
Precursor type: [M-H]-
Precursor intensity: 367805300
m/z	relative intensity
52.3013	4
57.0659	4
65.0022	4
70.8457	4
98.5028	4
107.0123	5
116.7662	5
121.7111	5
125.023	5
126.6247	5
148.0154	5
151.0029	5
152.0057	5
163.0031	5
169.0153	5
178.9979	5
180.0027	6
188.4235	6
190.0258	6
193.0123	6
211.0396	7
217.0143	7
243.0306	7
243.5813	7
244.0363	7
254.0235	8
255.0292	8
256.0342	9
271.0283	10
272.0327	14
273.0414	14
283.0231	20
299.0189	25
300.0269	36
301.0351	56
302.038	61
313.037	84
343.0469	86
392.6442	473
456.2524	775
609.1504	999
