Mass spectrum: Erythritol; ESI-TOF; MS2; CE: 6.0000000;  [M+H]+
Name: Erythritol
Class: NA
Formula: C4H10O4
Exact mass: 122.05791
SMILES: OCC(O)C(O)CO
InChI: InChI=1S/C4H10O4/c5-1-3(7)4(8)2-6/h3-8H,1-2H2
Instrument: waters xevo g2 TOF
Instrument type: ESI-TOF
Ms type: MS2
Ion mode: POSITIVE
Ionization: ESI
Collision energy: 6.0000000
Column name: Acquity CSHC18
Retention time: 0.561 min
Base peak: 123.06591
Precursor m/z: 123.06591
Precursor type: [M+H]+
m/z	relative intensity
87.045	119
105.0555	70
120.0267	42
123.0656	13
128.0153	26
129.0184	79
129.9521	4
130.9671	22
131.5349	13
133.0342	137
140.9922	13
142.0401	999
142.5418	86
142.9939	25
144.0043	7
145.0282	812
146.0091	302
146.9698	30
149.5294	4
150.0214	62
151.0265	136
152.0244	41
154.9675	44
155.9621	42
157.9667	104
160.9829	28
162.9914	6
171.9832	91
173.079	6
174.9687	25
175.9776	419
176.9843	70
183.9818	9
186.9929	95
189.984	140
191.9936	15
193.0303	29
193.9874	231
194.9942	109
197.4993	39
201.9942	29
208.004	239
209.009	13
217.0039	201
218.0074	52
220.0036	576
221.0196	51
221.9828	71
224.9913	34
232.0034	99
251.0409	7
269.0818	477
270.0861	41
271.0919	5
289.0409	20
294.0369	18
296.0418	31
297.0453	15
298.0355	859
299.0417	425
300.045	29
301.0436	87
302.1951	33
303.0394	48
307.0393	6
346.0645	21
352.9617	20
406.981	4
473.0037	26
