Mass spectrum: Quercetagetin 7-methyl ether; LC-ESI-QTOF; MS2; CE: 50eV;  [M+H]+
Name: Quercetagetin 7-methyl ether
Class: Flavonol
Formula: C16H12O8
Exact mass: 332.0532
SMILES: COC1=C(C(=C2C(=C1)OC(=C(C2=O)O)C3=CC(=C(C=C3)O)O)O)O
InChI: InChI=1S/C16H12O8/c1-23-10-5-9-11(13(20)12(10)19)14(21)15(22)16(24-9)6-2-3-7(17)8(18)4-6/h2-5,17-20,22H,1H3
Instrument: TIMS-TOF Pro, Bruker Daltonik; Elute UHPLC System, Bruker Daltonik
Instrument type: LC-ESI-QTOF
Ms type: MS2
Ion mode: POSITIVE
Ionization: ESI
Collision energy: 50eV
Column name: Acquity CSHC18
Retention time: 6.229 min
Base peak: 333.0591
Precursor m/z: 333.0591
Precursor type: [M+H]+
Precursor intensity: 52846.69
m/z	relative intensity
28.2202	162
98.4863	80
105.0526	193
123.0079	171
124.0112	245
137.0011	75
137.0234	482
138.0263	216
154.0257	181
167.0333	176
183.0307	326
193.6798	238
208.0349	148
216.0258	361
243.042	149
244.0323	142
260.9849	73
269.0094	129
273.0344	276
287.0496	135
289.0314	540
317.0272	610
318.0337	977
333.0301	999
