Mass spectrum: Quercetin 5-methyl ether; LC-ESI-QTOF; MS2; CE: 50eV;  [M+H]+
Name: Quercetin 5-methyl ether
Class: Flavonol
Formula: C16H12O7
Exact mass: 316.0583
SMILES: COC1=CC(=CC2=C1C(=O)C(=C(O2)C3=CC(=C(C=C3)O)O)O)O
InChI: InChI=1S/C16H12O7/c1-22-11-5-8(17)6-12-13(11)14(20)15(21)16(23-12)7-2-3-9(18)10(19)4-7/h2-6,17-19,21H,1H3
Instrument: TIMS-TOF Pro, Bruker Daltonik; Elute UHPLC System, Bruker Daltonik
Instrument type: LC-ESI-QTOF
Ms type: MS2
Ion mode: POSITIVE
Ionization: ESI
Collision energy: 50eV
Column name: Acquity CSHC18
Retention time: 5.791 min
Base peak: 317.0618
Precursor m/z: 317.0618
Precursor type: [M+H]+
Precursor intensity: 424729
m/z	relative intensity
42.2321	1
68.9963	3
82.0369	1
100.9563	2
105.0282	1
109.0282	5
110.0361	12
121.031	4
129.327	1
134.035	1
135.9929	2
137.0236	28
150.0293	2
151.9887	1
154.02	2
174.1451	1
176.9156	2
182.8311	2
186.0373	1
192.0383	1
193.0113	4
200.0463	8
203.033	2
205.0433	1
214.025	1
217.0485	3
218.0501	3
221.0451	2
228.0395	11
229.0469	7
230.0517	2
232.0293	3
237.7068	1
245.04	6
248.727	2
256.0339	3
257.0428	5
260.0532	1
265.1077	1
273.0376	3
274.0453	9
275.0284	1
285.0323	3
289.0725	1
300.9977	4
301.0307	52
302.0226	6
302.0418	99
303.0409	12
303.132	1
304.0443	3
316.8556	2
316.9714	2
317.011	14
317.0618	999
