Mass spectrum: (20R,22R,25R)-3beta,16beta-Diacetoxy-22,26-epimino-5alpha-cholestan-20-ol; APCI-ITFT; MS2; CE: CID 35;  [M-H]-
Name: (20R,22R,25R)-3beta,16beta-Diacetoxy-22,26-epimino-5alpha-cholestan-20-ol
Class: NA
Formula: C31H51NO5
Exact mass: 517.37672
SMILES: C[C@@H](CN1)CC[C@@H]1[C@](C)(O)[C@H]2[C@@H](OC(C)=O)C[C@@]3([H])[C@]4([H])CC[C@@]5([H])C[C@@H](OC(C)=O)CC[C@]5(C)[C@@]4([H])CC[C@]23C
InChI: InChI=1S/C31H51NO5/c1-18-7-10-27(32-17-18)31(6,35)28-26(37-20(3)34)16-25-23-9-8-21-15-22(36-19(2)33)11-13-29(21,4)24(23)12-14-30(25,28)5/h18,21-28,32,35H,7-17H2,1-6H3/t18-,21+,22+,23-,24+,25+,26+,27-,28+,29+,30+,31+/m1/s1
Instrument: Orbitrap Elite
Instrument type: APCI-ITFT
Ms type: MS2
Ion mode: NEGATIVE
Ionization: APCI
Collision energy: CID 35
Column name: Acquity CSHC18
Retention time: 0.260 min
Base peak: 516.36800
Precursor m/z: 516.36800
Precursor type: [M-H]-
Precursor intensity: 104631.9
m/z	relative intensity
164.1048	16
182.1094	19
182.1262	24
357.2425	542
373.2356	19
375.2546	999
386.2362	18
388.2506	25
398.2298	17
399.2174	21
414.2241	17
415.2284	18
416.2439	84
430.2228	24
454.2968	19
456.2739	68
457.3536	60
471.2938	18
472.3078	115
473.3046	19
474.3549	748
480.2751	45
482.3507	31
483.3458	577
484.3472	113
488.3014	28
498.2835	124
510.3247	19
512.3427	19
515.4221	19
