Mass spectrum: (22R,25R)-5alpha-Spirosolan-3-on; APCI-ITFT; MS2; CE: 35 CID;  [M+H]+
Name: (22R,25R)-5alpha-Spirosolan-3-on
Class: NA
Formula: C27H43NO2
Exact mass: 413.32938
SMILES: O=C1CC2CCC3C4CC5OC6(NCC(C)CC6)C(C)C5C4(C)CCC3C2(C)CC1
InChI: InChI=1S/C27H43NO2/c1-16-7-12-27(28-15-16)17(2)24-23(30-27)14-22-20-6-5-18-13-19(29)8-10-25(18,3)21(20)9-11-26(22,24)4/h16-18,20-24,28H,5-15H2,1-4H3
Instrument: Orbitrap Elite
Instrument type: APCI-ITFT
Ms type: MS2
Ion mode: POSITIVE
Ionization: APCI
Collision energy: 35 CID
Column name: Acquity CSHC18
Retention time: 0.094 min
Base peak: 414.33594
Precursor m/z: 414.33594
Precursor type: [M+H]+
Precursor intensity: 1495895000
m/z	relative intensity
124.1123	12
161.0961	12
253.1956	58
254.1998	13
378.7476	6
396.3261	999
