Mass spectrum: (-)-epicatechin; LC-ESI-QTOF; MS2; CE: 20-40eV;  [M+H]+
Name: (-)-epicatechin
Class: flavonoid
Formula: C15H14O6
Exact mass: 290.0790
SMILES: C1=CC(=C(C=C1C2(C(CC3=C(C=C(C=C3O2)O)O)(O)[H])[H])O)O
InChI: InChI=1S/C15H14O6/c16-8-4-11(18)9-6-13(20)15(21-14(9)5-8)7-1-2-10(17)12(19)3-7/h1-5,13,15-20H,6H2
Instrument: Impact II, Bruker; Dionex 3000, Thermo Scientific
Instrument type: LC-ESI-QTOF
Ms type: MS2
Ion mode: POSITIVE
Ionization: ESI
Collision energy: 20-40eV
Column name: Acquity CSHC18
Retention time: 3.428 min
Base peak: 291.0858
Precursor m/z: 291.0858
Precursor type: [M+H]+
Precursor intensity: 21766.63
m/z	relative intensity
105.0465	32
139.0462	999
