Mass spectrum: Trimethylamine N-oxide; ESI-TOF; MS2; CE: 6.0000000;  [M+H]+
Name: Trimethylamine N-oxide
Class: NA
Formula: C3H9NO
Exact mass: 75.06841
SMILES: C[N+](C)(C)[O-]
InChI: InChI=1S/C3H9NO/c1-4(2,3)5/h1-3H3
Instrument: waters xevo g2 TOF
Instrument type: ESI-TOF
Ms type: MS2
Ion mode: POSITIVE
Ionization: ESI
Collision energy: 6.0000000
Column name: Acquity CSHC18
Retention time: 0.455 min
Base peak: 76.07641
Precursor m/z: 76.07641
Precursor type: [M+H]+
m/z	relative intensity
76.0772	82
95.9742	3
97.9696	99
98.9639	15
99.9699	46
137.9885	435
139.9651	58
140.996	72
141.9594	999
143.96	163
145.9559	57
151.145	523
152.1484	34
154.9914	10
159.9696	26
173.1283	24
182.9855	120
184.9867	70
186.9825	27
188.9831	4
241.8854	20
253.071	10
258.8865	13
270.0733	3
296.0664	19
