Mass spectrum: NICOTINAMIDE MONONUCLEOTIDE; LC-ESI-QFT; MS2; CE: 30eV;  [M+H]+
Name: NICOTINAMIDE MONONUCLEOTIDE
Class: NA
Formula: C11H15N2O8P
Exact mass: 334.05660
SMILES: NC(=O)C1=CC=C[N+](=C1)[C@@H]1O[C@H](COP(O)([O-])=O)[C@@H](O)[C@H]1O
InChI: InChI=1S/C11H15N2O8P/c12-10(16)6-2-1-3-13(4-6)11-9(15)8(14)7(21-11)5-20-22(17,18)19/h1-4,7-9,11,14-15H,5H2,(H3-,12,16,17,18,19)/t7-,8-,9-,11-/m1/s1
Instrument: Q-Exactive Orbitrap, Thermo Scientfic; Ultimate 3000 HPLC, Thermo Scientfic
Instrument type: LC-ESI-QFT
Ms type: MS2
Ion mode: POSITIVE
Ionization: ESI
Collision energy: 30eV
Column name: Acquity CSHC18
Retention time: 0.583 min
Base peak: 335.0639
Precursor m/z: 335.0639
Precursor type: [M+H]+
Precursor intensity: 136
m/z	relative intensity
54.4486	1
69.0342	4
79.042	1
80.0501	2
97.029	264
98.0324	4
98.7863	1
103.4822	1
123.0556	999
124.0526	1
124.0542	1
124.0589	20
193.7557	1
257.9982	1
260.9751	1
262.4896	1
340.7149	1
352.4646	1
