Mass spectrum: BETAINE; LC-ESI-QTOF; MS2; CE: 20;  [M+H]+
Name: BETAINE
Class: NA
Formula: C5H11NO2
Exact mass: 117.0790
SMILES: C[N+](C)(C)CC([O-])=O
InChI: InChI=1S/C5H11NO2/c1-6(2,3)4-5(7)8/h4H2,1-3H3
Instrument: Agilent 6530Â Q-TOF LC/MS
Instrument type: LC-ESI-QTOF
Ms type: MS2
Ion mode: POSITIVE
Ionization: ESI
Collision energy: 20
Column name: NA
Retention time: 0.200 min
Base peak: 118.08785
Precursor m/z: 118.08785
Precursor type: [M+H]+
Precursor intensity: 178.5
m/z	relative intensity
58.0647	221
59.0725	459
118.0846	999
