Mass spectrum: Pinitol; LC-ESI-QTOF; MS2; CE: -10, -35, -60V;  [M-H]-
Name: Pinitol
Class: NA
Formula: C7H14O6
Exact mass: 194.0790
SMILES: COC1C(C(C(C(C1O)O)O)O)O
InChI: InChI=1S/C7H14O6/c1-13-7-5(11)3(9)2(8)4(10)6(7)12/h2-12H,1H3
Instrument: TripleToF 5600; Sciex
Instrument type: LC-ESI-QTOF
Ms type: MS2
Ion mode: NEGATIVE
Ionization: ESI
Collision energy: -10, -35, -60V
Column name: Acquity CSHC18
Retention time: 0.674 min
Base peak: 193.0735
Precursor m/z: 193.0735
Precursor type: [M-H]-
Precursor intensity: 70109.06
m/z	relative intensity
99.005	29
101.0209	96
102.0493	999
102.055	989
161.0448	243
193.0714	951
