Mass spectrum: folic acid; LC-ESI-QTOF; MS2; CE: -10, -35, -60V;  [M-H]-
Name: folic acid
Class: NA
Formula: C19H19N7O6
Exact mass: 441.1397
SMILES: C1=CC(=CC=C1C(=O)NC(CCC(=O)O)C(=O)O)NCC2=CN=C3C(=N2)C(=O)N=C(N3)N
InChI: InChI=1S/C19H19N7O6/c20-19-25-15-14(17(30)26-19)23-11(8-22-15)7-21-10-3-1-9(2-4-10)16(29)24-12(18(31)32)5-6-13(27)28/h1-4,8,12,21H,5-7H2,(H,24,29)(H,27,28)(H,31,32)(H3,20,22,25,26,30)
Instrument: TripleToF 5600; Sciex
Instrument type: LC-ESI-QTOF
Ms type: MS2
Ion mode: NEGATIVE
Ionization: ESI
Collision energy: -10, -35, -60V
Column name: Acquity CSHC18
Retention time: 11.498 min
Base peak: 440.1355
Precursor m/z: 440.1355
Precursor type: [M-H]-
Precursor intensity: 24508.94
m/z	relative intensity
92.0542	9
132.0443	62
147.0294	37
162.0408	25
175.0481	113
176.0562	22
177.1029	13
190.0413	97
191.0506	11
221.0879	17
222.0734	11
224.0974	12
264.0762	5
268.0873	9
279.058	17
293.0789	26
310.1099	5
311.0827	109
312.0968	25
396.1274	56
396.1443	67
396.1612	52
410.1309	18
422.1152	28
423.128	5
438.1255	26
439.1099	20
440.134	999
