Mass spectrum: Prostaglandin E2; ESI-TOF; MS2; CE: 6.0000000;  [M+H]+
Name: Prostaglandin E2
Class: NA
Formula: C20H32O5
Exact mass: 352.22497
SMILES: CCCCCC(C=CC1C(CC(=O)C1CC=CCCCC(=O)O)O)O
InChI: InChI=1S/C20H32O5/c1-2-3-6-9-15(21)12-13-17-16(18(22)14-19(17)23)10-7-4-5-8-11-20(24)25/h4,7,12-13,15-17,19,21,23H,2-3,5-6,8-11,14H2,1H3,(H,24,25)
Instrument: waters xevo g2 TOF
Instrument type: ESI-TOF
Ms type: MS2
Ion mode: POSITIVE
Ionization: ESI
Collision energy: 6.0000000
Column name: Acquity CSHC18
Retention time: 3.581 min
Base peak: 353.23297
Precursor m/z: 353.23297
Precursor type: [M+H]+
m/z	relative intensity
131.087	6
133.1014	4
145.101	8
163.1484	5
201.1277	43
207.1046	26
215.1439	49
233.1536	17
239.1799	10
245.1901	77
246.1936	10
247.2051	20
248.2082	5
253.1959	16
255.1737	18
257.1903	51
263.2004	86
265.216	103
266.2177	10
271.2059	79
273.1846	57
274.187	7
275.1995	22
281.19	158
282.193	26
289.217	64
291.1966	76
292.1977	12
299.2015	999
300.2045	207
301.2071	17
304.2982	5
317.1583	434
318.2149	216
319.2167	21
335.2213	451
336.2258	99
337.2312	8
349.2365	10
354.1948	208
354.6959	79
