Mass spectrum: S-HEXYL-GLUTATHIONE; LC-ESI-QFT; MS2; CE: 30eV;  [M+H]+
Name: S-HEXYL-GLUTATHIONE
Class: NA
Formula: C16H29N3O6S
Exact mass: 391.17771
SMILES: CCCCCCSCC(C(=O)NCC(=O)O)NC(=O)CCC(C(=O)O)N
InChI: InChI=1S/C16H29N3O6S/c1-2-3-4-5-8-26-10-12(15(23)18-9-14(21)22)19-13(20)7-6-11(17)16(24)25/h11-12H,2-10,17H2,1H3,(H,18,23)(H,19,20)(H,21,22)(H,24,25)
Instrument: Q-Exactive Orbitrap, Thermo Scientfic; Ultimate 3000 HPLC, Thermo Scientfic
Instrument type: LC-ESI-QFT
Ms type: MS2
Ion mode: POSITIVE
Ionization: ESI
Collision energy: 30eV
Column name: Acquity CSHC18
Retention time: 7.895 min
Base peak: 392.1850
Precursor m/z: 392.1850
Precursor type: [M+H]+
Precursor intensity: 181
m/z	relative intensity
54.553	2
55.0185	2
55.0449	2
55.125	2
57.0708	24
57.5843	2
58.3055	2
58.9958	5
61.4005	2
62.8617	2
63.1109	2
64.8163	2
66.6227	2
71.0863	24
74.5325	2
76.0224	2
83.061	3
84.0452	61
85.1019	18
86.9907	12
90.7347	2
92.3145	3
93.5048	2
95.0963	2
102.0557	3
102.1345	2
105.0011	12
112.0399	12
116.017	99
124.3023	2
126.2366	2
129.0664	51
130.0504	150
135.4032	2
143.0895	21
144.0118	190
145.0614	15
149.0238	198
150.0272	35
156.8628	2
157.9131	3
160.1159	728
161.025	2
161.1193	28
162.0224	999
163.0258	25
167.0342	17
173.6127	3
189.0951	26
218.3192	2
226.6202	3
246.1164	900
247.1199	49
263.1431	16
283.9316	3
299.1425	12
317.1539	59
329.1538	3
374.175	3
375.1598	5
