Mass spectrum: DEOXYGUANOSINE; LC-ESI-QTOF; MS2; CE: 20;  [M+H]+
Name: DEOXYGUANOSINE
Class: NA
Formula: C10H13N5O4
Exact mass: 267.0968
SMILES: NC1=NC2=C(N=CN2[C@H]2C[C@H](O)[C@@H](CO)O2)C(=O)N1
InChI: InChI=1S/C10H13N5O4/c11-10-13-8-7(9(18)14-10)12-3-15(8)6-1-4(17)5(2-16)19-6/h3-6,16-17H,1-2H2,(H3,11,13,14,18)/t4-,5+,6+/m0/s1
Instrument: Agilent 6530Â Q-TOF LC/MS
Instrument type: LC-ESI-QTOF
Ms type: MS2
Ion mode: POSITIVE
Ionization: ESI
Collision energy: 20
Column name: NA
Retention time: 0.200 min
Base peak: 268.10382
Precursor m/z: 268.10382
Precursor type: [M+H]+
Precursor intensity: 27.5
m/z	relative intensity
58.0643	52
73.0297	58
109.0504	61
135.0258	63
152.0562	95
160.9549	999
