Mass spectrum: Cytidine; LC-ESI-QTOF; MS2; CE: 15.00;  [M+H]+
Name: Cytidine
Class: NA
Formula: C9H13N3O5
Exact mass: 243.0855
SMILES: C1=CN(C(=O)N=C1N)C2C(C(C(O2)CO)O)O
InChI: InChI=1S/C9H13N3O5/c10-5-1-2-12(9(16)11-5)8-7(15)6(14)4(3-13)17-8/h1-2,4,6-8,13-15H,3H2,(H2,10,11,16)
Instrument: Bruker MicrOTOF-Q
Instrument type: LC-ESI-QTOF
Ms type: MS2
Ion mode: POSITIVE
Ionization: ESI
Collision energy: 15.00
Column name: Acquity CSHC18
Retention time: NA
Base peak: 244.0928
Precursor m/z: 244.0928
Precursor type: [M+H]+
m/z	relative intensity
57.6893	1
76.738	1
77.0088	1
94.0434	2
95.0174	1
97.6779	1
99.4889	1
111.1378	1
111.4901	1
111.9769	5
112.0477	999
112.1953	3
112.2326	2
112.2895	2
112.3594	2
112.3991	2
112.5181	1
112.5813	1
112.6935	1
112.7756	1
113.0514	48
114.0677	1
114.1089	1
115.0383	1
115.949	1
133.0469	7
178.0585	1
190.0575	1
244.097	3
245.1167	1
305.8188	1
