Mass spectrum: NADP; LC-ESI-QFT; MS2; CE: 30eV;  [M-H]-
Name: NADP
Class: NA
Formula: C21H28N7O17P3
Exact mass: 743.07545
SMILES: O=P([O-])(OP(O)(OCC1C(O)C(OP(O)(O)=O)C(N2C=NC3=C2N=CN=C3N)O1)=O)OCC(O4)C(O)C(O)C4[N+]5=CC=CC(C(N)=O)=C5
InChI: InChI=1S/C21H28N7O17P3/c22-17-12-19(25-7-24-17)28(8-26-12)21-16(44-46(33,34)35)14(30)11(43-21)6-41-48(38,39)45-47(36,37)40-5-10-13(29)15(31)20(42-10)27-3-1-2-9(4-27)18(23)32/h1-4,7-8,10-11,13-16,20-21,29-31H,5-6H2,(H7-,22,23,24,25,32,33,34,35,36,37,38,39)
Instrument: Q-Exactive Orbitrap, Thermo Scientfic; Ultimate 3000 HPLC, Thermo Scientfic
Instrument type: LC-ESI-QFT
Ms type: MS2
Ion mode: NEGATIVE
Ionization: ESI
Collision energy: 30eV
Column name: Acquity CSHC18
Retention time: 0.744 min
Base peak: 742.0682
Precursor m/z: 742.0682
Precursor type: [M-H]-
Precursor intensity: 117
m/z	relative intensity
51.8388	72
55.7719	72
56.4165	75
56.8796	82
59.3186	90
60.6175	82
68.2797	95
70.7514	89
71.0569	94
73.8101	100
78.9572	469
96.9679	138
99.7447	113
126.3855	115
128.7796	103
144.0494	94
158.924	665
173.8547	88
173.863	92
180.3157	97
191.8224	100
200.609	100
214.6338	104
219.6164	113
230.8759	105
236.5719	131
259.3281	101
272.9567	818
319.1685	102
406.0369	95
408.0108	999
452.3576	109
469.888	107
506.7607	129
594.9355	120
