Mass spectrum: Colchicoside; LC-ESI-ITFT; MS2; CE: 45eV;  [M+H]+
Name: Colchicoside
Class: alkaloid
Formula: C27H33NO11
Exact mass: 547.2054
SMILES: CC(=O)NC1CCC2=CC(=C(C(=C2C3=CC=C(C(=O)C=C13)OC)OC)OC)OC4C(C(C(C(O4)CO)O)O)O
InChI: InChI=1S/C27H33NO11/c1-12(30)28-16-7-5-13-9-19(38-27-24(34)23(33)22(32)20(11-29)39-27)25(36-3)26(37-4)21(13)14-6-8-18(35-2)17(31)10-15(14)16/h6,8-10,16,20,22-24,27,29,32-34H,5,7,11H2,1-4H3,(H,28,30)
Instrument: LTQ Orbitrap XL, Thermo Scientfic; Dionex Ultimate 300
Instrument type: LC-ESI-ITFT
Ms type: MS2
Ion mode: POSITIVE
Ionization: ESI
Collision energy: 45eV
Column name: Alltima C18
Retention time: 13.83 min
Base peak: 548.2108
Precursor m/z: 548.2108
Precursor type: [M+H]+
m/z	relative intensity
193.0425	3
234.0531	21
261.2641	1
264.1024	5
280.2966	42
294.1123	30
309.286	18
322.1456	14
344.1813	999
358.234	1
371.1971	20
471.171	2
489.3385	65
512.4769	9
