Mass spectrum: Lithium acetoacetate; LC-ESI-QTOF; MS2; CE: -10, -35, -60V;  [M-H]-
Name: Lithium acetoacetate
Class: NA
Formula: C4H6O3
Exact mass: 102.0317
SMILES: CC(=O)CC(=O)O
InChI: InChI=1S/C4H6O3/c1-3(5)2-4(6)7/h2H2,1H3,(H,6,7)
Instrument: TripleToF 5600; Sciex
Instrument type: LC-ESI-QTOF
Ms type: MS2
Ion mode: NEGATIVE
Ionization: ESI
Collision energy: -10, -35, -60V
Column name: Acquity CSHC18
Retention time: 4.304 min
Base peak: 101.0249
Precursor m/z: 101.0249
Precursor type: [M-H]-
Precursor intensity: 36847.13
m/z	relative intensity
101.0197	306
101.0254	999
