Mass spectrum: Linoleic acid; LC-ESI-QTOF; MS2; CE: 15.00;  [M+H]+
Name: Linoleic acid
Class: NA
Formula: C18H32O2
Exact mass: 280.2402
SMILES: CCCCCC=CCC=CCCCCCCCC(=O)O
InChI: InChI=1S/C18H32O2/c1-2-3-4-5-6-7-8-9-10-11-12-13-14-15-16-17-18(19)20/h6-7,9-10H,2-5,8,11-17H2,1H3,(H,19,20)
Instrument: Bruker MicrOTOF-Q
Instrument type: LC-ESI-QTOF
Ms type: MS2
Ion mode: POSITIVE
Ionization: ESI
Collision energy: 15.00
Column name: Acquity CSHC18
Retention time: NA
Base peak: 281.2475
Precursor m/z: 281.2475
Precursor type: [M+H]+
m/z	relative intensity
119.0832	24
121.097	25
123.1156	28
133.1003	28
134.1005	28
135.1152	29
136.1176	31
137.1322	32
139.1126	33
147.1162	36
148.1167	44
149.132	46
151.1119	46
153.1248	46
161.1337	52
162.1358	54
163.1469	63
164.1479	67
165.1325	74
167.1449	86
175.1479	91
176.1508	105
177.1644	107
179.1467	121
181.1642	125
189.1638	139
190.1707	143
193.1582	143
203.1788	159
205.198	173
207.1744	178
217.1958	183
219.2117	240
221.2219	263
222.2349	279
245.2268	293
246.2316	331
263.2362	526
264.2425	999
