Mass spectrum: Isopimpinellin; LC-ESI-QTOF; MS2; CE: 29.48;  [2M+H]+
Name: Isopimpinellin
Class: NA
Formula: C13H10O5
Exact mass: 246.0528
SMILES: COC1=C2C=COC2=C(C3=C1C=CC(=O)O3)OC
InChI: InChI=1S/C13H10O5/c1-15-10-7-3-4-9(14)18-12(7)13(16-2)11-8(10)5-6-17-11/h3-6H,1-2H3
Instrument: Bruker MicrOTOF-Q
Instrument type: LC-ESI-QTOF
Ms type: MS2
Ion mode: POSITIVE
Ionization: ESI
Collision energy: 29.48
Column name: Acquity CSHC18
Retention time: NA
Base peak: 493.1129
Precursor m/z: 493.1129
Precursor type: [2M+H]+
m/z	relative intensity
217.0135	26
218.0165	43
232.0373	89
233.0398	208
247.0625	380
248.0634	642
249.0652	999
