Mass spectrum: (2-AMINOETHYL)PHOSPHONATE; LC-ESI-QFT; MS2; CE: 30eV;  [M+H]+
Name: (2-AMINOETHYL)PHOSPHONATE
Class: NA
Formula: C2H8NO3P
Exact mass: 125.02418
SMILES: NCCP(O)(O)=O
InChI: InChI=1S/C2H8NO3P/c3-1-2-7(4,5)6/h1-3H2,(H2,4,5,6)
Instrument: Q-Exactive Orbitrap, Thermo Scientfic; Ultimate 3000 HPLC, Thermo Scientfic
Instrument type: LC-ESI-QFT
Ms type: MS2
Ion mode: POSITIVE
Ionization: ESI
Collision energy: 30eV
Column name: Acquity CSHC18
Retention time: 0.541 min
Base peak: 126.0315
Precursor m/z: 126.0315
Precursor type: [M+H]+
Precursor intensity: 125
m/z	relative intensity
56.9656	7
59.9301	5
61.0878	5
64.9792	12
67.5393	6
69.9349	5
70.3399	5
70.7318	6
71.879	6
75.0268	97
77.5771	5
80.9739	62
84.9384	7
84.9604	242
93.0372	98
97.0055	999
98.0008	109
98.6191	6
98.9847	653
102.9486	13
107.4036	7
108.0214	233
110.0088	55
116.2715	6
126.0738	14
127.0157	55
127.0352	55
127.039	6
