Mass spectrum: CITRAMALATE; LC-ESI-QTOF; MS2; CE: 10;  [M-H]-
Name: CITRAMALATE
Class: NA
Formula: C5H8O5
Exact mass: 148.03717
SMILES: CC(O)(CC(O)=O)C(O)=O
InChI: InChI=1S/C5H8O5/c1-5(10,4(8)9)2-3(6)7/h10H,2H2,1H3,(H,6,7)(H,8,9)
Instrument: Agilent 6530Â Q-TOF LC/MS
Instrument type: LC-ESI-QTOF
Ms type: MS2
Ion mode: NEGATIVE
Ionization: ESI
Collision energy: 10
Column name: NA
Retention time: 0.200 min
Base peak: 147.02813
Precursor m/z: 147.02813
Precursor type: [M-H]-
Precursor intensity: 117
m/z	relative intensity
41.0234	115
43.0194	125
57.0455	166
59.0177	180
85.0452	251
87.0319	258
101.0208	492
103.0394	796
129.0258	820
147.049	999
