Mass spectrum: Acetylcarnosine; LC-ESI-ITFT; MS2; CE: 60;  [M+H]+
Name: Acetylcarnosine
Class: Organic acids and derivatives; Peptidomimetics; Hybrid peptides
Formula: C11H16N4O4
Exact mass: 268.11715
SMILES: CC(=O)NCCC(=O)N[C@H](CC1=CN=CN1)C(O)=O
InChI: InChI=1S/C11H16N4O4/c1-7(16)13-3-2-10(17)15-9(11(18)19)4-8-5-12-6-14-8/h5-6,9H,2-4H2,1H3,(H,12,14)(H,13,16)(H,15,17)(H,18,19)/t9-/m1/s1
Instrument: Thermo Scientific Q-Exactive Focus
Instrument type: LC-ESI-ITFT
Ms type: MS2
Ion mode: POSITIVE
Ionization: ESI
Collision energy: 60
Column name: Acquity CSHC18
Retention time: 1.750 min
Base peak: 269.12442
Precursor m/z: 269.12442
Precursor type: [M+H]+
m/z	relative intensity
55.0184	357
56.05	409
68.0499	93
72.0448	235
81.0451	148
82.0529	209
83.0607	999
93.045	602
95.0606	108
110.0714	511
