Mass spectrum: acetylglucosamine; LC-ESI-QTOF; MS2; CE: -10, -35, -60V;  [M-H]-
Name: acetylglucosamine
Class: NA
Formula: C8H15NO6
Exact mass: 221.0899
SMILES: CC(=O)NC1C(C(C(OC1O)CO)O)O
InChI: InChI=1S/C8H15NO6/c1-3(11)9-5-7(13)6(12)4(2-10)15-8(5)14/h4-8,10,12-14H,2H2,1H3,(H,9,11)
Instrument: TripleToF 5600; Sciex
Instrument type: LC-ESI-QTOF
Ms type: MS2
Ion mode: NEGATIVE
Ionization: ESI
Collision energy: -10, -35, -60V
Column name: Acquity CSHC18
Retention time: 0.693 min
Base peak: 220.0841
Precursor m/z: 220.0841
Precursor type: [M-H]-
Precursor intensity: 164777.3
m/z	relative intensity
119.0382	999
216.9997	399
