Mass spectrum: N-Cbz-22,26-epimino-23alphaOH, 16beta, 23-epoxy-5alpha, 22alphaH, 25betaH-cholestan-3-on; APCI-ITFT; MS2; CE: 35 CID;  [M+H]+
Name: N-Cbz-22,26-epimino-23alphaOH, 16beta, 23-epoxy-5alpha, 22alphaH, 25betaH-cholestan-3-on
Class: NA
Formula: C35H49NO5
Exact mass: 563.36107
SMILES: O=C1CC[C@@]2(C)[C@](CC[C@]3([H])[C@@]([H])2CC[C@@]4(C)[C@]([H])3C[C@@]([H])(O[C@@](C[C@H](C)CN6C(OCC7=CC=CC=C7)=O)(O)[C@@]6([H])[C@H]5C)[C@]54[H])([H])C1
InChI: InChI=1S/C35H49NO5/c1-21-18-35(39)31(36(19-21)32(38)40-20-23-8-6-5-7-9-23)22(2)30-29(41-35)17-28-26-11-10-24-16-25(37)12-14-33(24,3)27(26)13-15-34(28,30)4/h5-9,21-22,24,26-31,39H,10-20H2,1-4H3/t21-,22-,24-,26+,27-,28-,29+,30-,31+,33-,34-,35+/m0/s1
Instrument: Orbitrap Elite
Instrument type: APCI-ITFT
Ms type: MS2
Ion mode: POSITIVE
Ionization: APCI
Collision energy: 35 CID
Column name: Acquity CSHC18
Retention time: 0.316 min
Base peak: 564.36770
Precursor m/z: 564.36770
Precursor type: [M+H]+
Precursor intensity: 6856184
m/z	relative intensity
174.1293	4
202.1219	46
253.1984	8
255.2098	10
258.1496	4
271.2035	20
273.2221	5
274.1476	6
281.2266	24
289.2157	11
298.1473	4
299.2366	60
376.3031	5
392.2975	12
394.3134	49
395.2933	7
407.2903	6
410.3013	66
411.3134	5
412.3205	77
413.3043	43
420.2903	11
428.3205	29
436.2844	10
438.3019	18
444.3291	6
454.2997	7
455.3078	11
456.3098	30
466.3449	4
472.3108	4
473.3119	13
484.3536	56
488.3171	10
502.3659	999
510.3377	7
520.3747	535
528.3447	62
546.3572	553
