Mass spectrum: O-Phosphoethanolamine; LC-ESI-ITFT; MS2; CE: 20;  [M-H]-
Name: O-Phosphoethanolamine
Class: Organic acids and derivatives; Organic phosphoric acids and derivatives; Phosphate esters
Formula: C2H8NO4P
Exact mass: 141.01909
SMILES: NCCOP(O)(O)=O
InChI: InChI=1S/C2H8NO4P/c3-1-2-7-8(4,5)6/h1-3H2,(H2,4,5,6)
Instrument: Thermo Scientific Q-Exactive Focus
Instrument type: LC-ESI-ITFT
Ms type: MS2
Ion mode: NEGATIVE
Ionization: ESI
Collision energy: 20
Column name: Acquity CSHC18
Retention time: 0.644 min
Base peak: 140.01183
Precursor m/z: 140.01183
Precursor type: [M-H]-
m/z	relative intensity
78.9578	999
122.9058	1
