Mass spectrum: Cytidine; LC-ESI-QTOF; MS2; CE: 30;  [M+H]+
Name: Cytidine
Class: NA
Formula: C9H13N3O5
Exact mass: 243.08552
SMILES: C1=CN(C(=O)N=C1N)C2C(C(C(O2)CO)O)O
InChI: InChI=1S/C9H13N3O5/c10-5-1-2-12(9(16)11-5)8-7(15)6(14)4(3-13)17-8/h1-2,4,6-8,13-15H,3H2,(H2,10,11,16)
Instrument: impact II
Instrument type: LC-ESI-QTOF
Ms type: MS2
Ion mode: POSITIVE
Ionization: ESI
Collision energy: 30
Column name: Acquity CSHC18
Retention time: 1.802 min
Base peak: 244.09280
Precursor m/z: 244.09280
Precursor type: [M+H]+
m/z	relative intensity
112.0507	999
112.0638	137
