Mass spectrum: ETHYL 3-INDOLEACETATE; LC-ESI-QFT; MS2; CE: 30eV;  [M+H]+
Name: ETHYL 3-INDOLEACETATE
Class: NA
Formula: C12H13NO2
Exact mass: 203.09463
SMILES: CCOC(=O)CC1=CNC2=CC=CC=C21
InChI: InChI=1S/C12H13NO2/c1-2-15-12(14)7-9-8-13-11-6-4-3-5-10(9)11/h3-6,8,13H,2,7H2,1H3
Instrument: Q-Exactive Orbitrap, Thermo Scientfic; Ultimate 3000 HPLC, Thermo Scientfic
Instrument type: LC-ESI-QFT
Ms type: MS2
Ion mode: POSITIVE
Ionization: ESI
Collision energy: 30eV
Column name: Acquity CSHC18
Retention time: 9.372 min
Base peak: 204.1019
Precursor m/z: 204.1019
Precursor type: [M+H]+
Precursor intensity: 144
m/z	relative intensity
50.7958	7
57.4634	8
60.0882	7
63.0231	11
64.4524	9
71.586	9
77.0389	43
77.4771	8
80.5705	10
86.097	11
103.0544	50
110.1776	9
116.7355	10
118.5097	12
131.0632	42
131.0685	999
158.0963	66
176.0705	80
194.1442	12
204.1019	416
205.1051	20
