Mass spectrum: alpha-Linolenoyl ethanolamide; LC-ESI-ITFT; MS2; CE: 40;  [M+H]+
Name: alpha-Linolenoyl ethanolamide
Class: Organic nitrogen compounds; Organonitrogen compounds; Amines
Formula: C20H35NO2
Exact mass: 321.26678
SMILES: CC\C=C/C\C=C/C\C=C/CCCCCCCC(=O)NCCO
InChI: InChI=1S/C20H35NO2/c1-2-3-4-5-6-7-8-9-10-11-12-13-14-15-16-17-20(23)21-18-19-22/h3-4,6-7,9-10,22H,2,5,8,11-19H2,1H3,(H,21,23)/b4-3-,7-6-,10-9-
Instrument: Thermo Scientific Q-Exactive Focus
Instrument type: LC-ESI-ITFT
Ms type: MS2
Ion mode: POSITIVE
Ionization: ESI
Collision energy: 40
Column name: Acquity CSHC18
Retention time: 1.463 min
Base peak: 322.27405
Precursor m/z: 322.27405
Precursor type: [M+H]+
m/z	relative intensity
55.0548	166
62.0606	999
67.0547	514
69.0703	121
79.0546	335
81.0702	409
91.0545	168
93.0702	297
95.0858	243
107.0857	107
