Mass spectrum: L-Glutamic acid; LC-ESI-ITFT; MS2; CE: 20;  [M-H]-
Name: L-Glutamic acid
Class: Organic acids and derivatives; Carboxylic acids and derivatives; Amino acids, peptides, and analogues
Formula: C5H9NO4
Exact mass: 147.05316
SMILES: N[C@@H](CCC(O)=O)C(O)=O
InChI: InChI=1S/C5H9NO4/c6-3(5(9)10)1-2-4(7)8/h3H,1-2,6H2,(H,7,8)(H,9,10)/t3-/m0/s1
Instrument: Thermo Scientific Q-Exactive Focus
Instrument type: LC-ESI-ITFT
Ms type: MS2
Ion mode: NEGATIVE
Ionization: ESI
Collision energy: 20
Column name: Acquity CSHC18
Retention time: 0.645 min
Base peak: 146.04588
Precursor m/z: 146.04588
Precursor type: [M-H]-
m/z	relative intensity
74.0235	16
85.0283	9
86.6154	8
92.5156	13
102.0548	999
117.7008	9
128.0342	150
130.6117	8
135.9924	8
144.9327	9
