Mass spectrum: kinetin; LC-ESI-QTOF; MS2; CE: -10, -35, -60V;  [M-H]-
Name: kinetin
Class: NA
Formula: C10H9N5O
Exact mass: 215.0807
SMILES: C1=COC(=C1)CNC2=NC=NC3=C2NC=N3
InChI: InChI=1S/C10H9N5O/c1-2-7(16-3-1)4-11-9-8-10(13-5-12-8)15-6-14-9/h1-3,5-6H,4H2,(H2,11,12,13,14,15)
Instrument: TripleToF 5600; Sciex
Instrument type: LC-ESI-QTOF
Ms type: MS2
Ion mode: NEGATIVE
Ionization: ESI
Collision energy: -10, -35, -60V
Column name: Acquity CSHC18
Retention time: 8.227 min
Base peak: 214.0752
Precursor m/z: 214.0752
Precursor type: [M-H]-
Precursor intensity: 3760021
m/z	relative intensity
65.0138	158
66.009	504
68.0233	9
78.0092	18
79.0174	158
90.0091	337
91.0178	18
92.0253	298
105.0203	49
106.0282	434
107.035	355
117.0213	568
118.0268	21
119.035	33
132.0322	999
132.6266	68
133.0399	931
134.0464	699
142.042	103
143.0364	40
144.0325	127
146.0489	60
158.0473	74
160.0627	47
169.0458	37
169.0513	136
170.0476	273
171.0561	12
172.062	22
173.0355	29
184.0638	45
186.0784	171
195.0559	12
196.0647	339
214.0749	338
