Mass spectrum: Cotinine; LC-ESI-ITFT; MS2; CE: 100;  [M+H]+
Name: Cotinine
Class: Organoheterocyclic compounds; Pyridines and derivatives; Pyrrolidinylpyridines
Formula: C10H12N2O
Exact mass: 176.09496
SMILES: CN1C(CCC1=O)C1=CN=CC=C1
InChI: InChI=1S/C10H12N2O/c1-12-9(4-5-10(12)13)8-3-2-6-11-7-8/h2-3,6-7,9H,4-5H2,1H3
Instrument: Thermo Scientific Q-Exactive Focus
Instrument type: LC-ESI-ITFT
Ms type: MS2
Ion mode: POSITIVE
Ionization: ESI
Collision energy: 100
Column name: Acquity CSHC18
Retention time: 2.305 min
Base peak: 177.10223
Precursor m/z: 177.10223
Precursor type: [M+H]+
m/z	relative intensity
50.0157	999
51.0235	715
53.0028	153
53.0392	452
54.0345	186
68.2348	111
80.0499	239
89.039	141
113.7518	114
182.2354	113
