Mass spectrum: Taurine; ESI-TOF; MS2; CE: 6.0000000;  [M+H]+
Name: Taurine
Class: NA
Formula: C2H7NO3S
Exact mass: 125.01466
SMILES: NCCS(O)(=O)=O
InChI: InChI=1S/C2H7NO3S/c3-1-2-7(4,5)6/h1-3H2,(H,4,5,6)
Instrument: waters xevo g2 TOF
Instrument type: ESI-TOF
Ms type: MS2
Ion mode: POSITIVE
Ionization: ESI
Collision energy: 6.0000000
Column name: Acquity CSHC18
Retention time: 0.548 min
Base peak: 126.02266
Precursor m/z: 126.02266
Precursor type: [M+H]+
m/z	relative intensity
108.012	34
126.0223	999
127.0249	27
128.0189	43
131.5009	4
141.9591	100
148.0039	36
158.0034	11
178.0248	2
188.9807	1
204.9956	7
210.9877	25
211.9639	3
220.9676	38
224.9396	12
251.0373	67
251.9872	26
253.0338	5
258.1687	5
258.8913	1
265.9655	7
273.0156	2
274.9948	6
284.999	3
288.984	13
303.9486	68
304.9551	29
305.9509	8
306.9536	6
330.0126	3
345.9832	5
376.0522	8
413.9984	13
415.9961	1
428.9618	26
429.9687	20
430.9652	4
499.8847	1
501.0658	14
503.0644	2
523.0508	2
553.9779	12
555.9711	2
626.0809	7
627.0751	1
751.0904	2
773.0829	6
804.0051	1
876.1038	1
