Mass spectrum: Isorhamnetin; LC-ESI-QFT; MS2; CE: 15,30,45 (NCE);  [2M-H]-
Name: Isorhamnetin
Class: NA
Formula: C16H12O7
Exact mass: 316.0583
SMILES: COC1=C(O)C=CC(=C1)C1=C(O)C(=O)C2=C(O)C=C(O)C=C2O1
InChI: InChI=1S/C16H12O7/c1-22-11-4-7(2-3-9(11)18)16-15(21)14(20)13-10(19)5-8(17)6-12(13)23-16/h2-6,17-19,21H,1H3
Instrument: QE Focus, Thermo Scientfic; UPLC I-Class, Waters
Instrument type: LC-ESI-QFT
Ms type: MS2
Ion mode: NEGATIVE
Ionization: ESI
Collision energy: 15,30,45 (NCE)
Column name: Acquity CSHC18
Retention time: 2.517 min
Base peak: 631.1100
Precursor m/z: 631.1100
Precursor type: [2M-H]-
Precursor intensity: 3791653
m/z	relative intensity
100.2523	650
107.0124	999
271.0248	952
280.8046	721
