Mass spectrum: 11-keto Fluprostenol; ESI-TOF; MS2; CE: 0.6458333;  [M+H]+
Name: 11-keto Fluprostenol
Class: NA
Formula: C23H27F3O6
Exact mass: 456.17597
SMILES: O[C@@H](C1)[C@H](C/C=C\CCCC(O)=O)[C@@H](/C=C/[C@@H](O)COC2=CC=CC(C(F)(F)F)=C2)C1=O
InChI: InChI=1S/C23H27F3O6/c24-23(25,26)15-6-5-7-17(12-15)32-14-16(27)10-11-19-18(20(28)13-21(19)29)8-3-1-2-4-9-22(30)31/h1,3,5-7,10-12,16,18-20,27-28H,2,4,8-9,13-14H2,(H,30,31)/b3-1-,11-10+/t16-,18-,19-,20+/m1/s1
Instrument: waters xevo g2 TOF
Instrument type: ESI-TOF
Ms type: MS2
Ion mode: POSITIVE
Ionization: ESI
Collision energy: 0.6458333
Column name: Acquity CSHC18
Retention time: 3.668 min
Base peak: 457.18397
Precursor m/z: 457.18397
Precursor type: [M+H]+
m/z	relative intensity
115.0549	126
128.0624	323
129.0711	999
133.0304	161
141.0702	347
142.0762	204
143.086	677
144.0895	68
145.0658	252
153.0714	222
155.0871	285
159.0805	182
166.0774	219
167.0713	480
169.1035	327
171.1164	558
175.0755	93
179.086	126
180.0931	143
181.1024	423
189.1276	56
195.1118	461
196.1335	92
197.098	213
199.1126	698
200.114	67
205.0984	60
213.1282	602
214.1322	69
223.112	305
241.1235	665
242.1272	84
259.1334	415
277.143	136
297.0877	51
299.0365	128
333.1625	83
361.1419	81
417.0985	131
439.1801	44
457.1073	53
