Mass spectrum: Myo-Inositol; LC-ESI-QTOF; MS2; CE: 19.58;  [2M+H]+
Name: Myo-Inositol
Class: NA
Formula: C6H12O6
Exact mass: 180.0634
SMILES: C1(C(C(C(C(C1O)O)O)O)O)O
InChI: InChI=1S/C6H12O6/c7-1-2(8)4(10)6(12)5(11)3(1)9/h1-12H
Instrument: Bruker MicrOTOF-Q
Instrument type: LC-ESI-QTOF
Ms type: MS2
Ion mode: POSITIVE
Ionization: ESI
Collision energy: 19.58
Column name: Acquity CSHC18
Retention time: NA
Base peak: 361.1341
Precursor m/z: 361.1341
Precursor type: [2M+H]+
m/z	relative intensity
81.03	18
99.0402	11
109.0256	999
110.0287	60
111.0277	8
127.0372	207
128.0391	15
145.0483	151
146.0533	12
163.0587	279
164.0594	13
181.0695	249
182.0736	30
183.0754	8
