Mass spectrum: Scopolin; LC-ESI-QTOF; MS2; CE: 35.00;  [M+H]+
Name: Scopolin
Class: NA
Formula: C16H18O9
Exact mass: 354.0951
SMILES: COC1=C(C=C2C(=C1)C=CC(=O)O2)OC3C(C(C(C(O3)CO)O)O)O
InChI: InChI=1S/C16H18O9/c1-22-9-4-7-2-3-12(18)23-8(7)5-10(9)24-16-15(21)14(20)13(19)11(6-17)25-16/h2-5,11,13-17,19-21H,6H2,1H3
Instrument: Bruker MicrOTOF-Q
Instrument type: LC-ESI-QTOF
Ms type: MS2
Ion mode: POSITIVE
Ionization: ESI
Collision energy: 35.00
Column name: Acquity CSHC18
Retention time: NA
Base peak: 355.1019
Precursor m/z: 355.1019
Precursor type: [M+H]+
m/z	relative intensity
121.0272	6
122.034	19
133.0276	261
134.0308	18
135.0371	2
137.0582	77
138.0603	9
149.0607	15
150.0322	31
151.0354	8
161.0257	15
162.0245	2
165.0542	38
166.0558	6
176.0313	4
178.0259	572
178.2883	3
179.0306	50
180.0315	5
192.916	3
193.0491	999
193.1746	5
194.053	108
195.0537	12
