Mass spectrum: L-Arginine; LC-ESI-QTOF; MS2; CE: 15;  [M-H]-
Name: L-Arginine
Class: NA
Formula: C6H14N4O2
Exact mass: 174.1117
SMILES: C(CC(C(=O)O)N)CN=C(N)N
InChI: InChI=1S/C6H14N4O2/c7-4(5(11)12)2-1-3-10-6(8)9/h4H,1-3,7H2,(H,11,12)(H4,8,9,10)
Instrument: Bruker MicrOTOF-Q
Instrument type: LC-ESI-QTOF
Ms type: MS2
Ion mode: NEGATIVE
Ionization: ESI
Collision energy: 15
Column name: Acquity CSHC18
Retention time: NA
Base peak: 173.1044
Precursor m/z: 173.1044
Precursor type: [M-H]-
m/z	relative intensity
59.2903	121
59.5816	72
74.2287	92
74.805	147
85.7072	66
90.6575	81
98.0283	75
98.0993	89
101.029	89
106.7858	69
112.0869	110
113.0693	95
118.5351	72
128.9461	95
130.6683	95
130.731	66
131.0849	999
131.2702	57
132.0794	98
176.8211	104
231.8398	66
266.6104	72
287.7798	81
314.64	98
341.0825	81
361.6036	104
416.5641	89
426.1786	63
443.0012	78
446.3037	69
448.6277	72
456.1511	63
473.2068	81
501.5583	60
509.2809	69
559.3158	98
616.5093	72
617.0685	98
627.8658	89
629.5554	60
637.131	95
646.6006	57
681.4669	83
685.093	66
721.2034	81
731.1697	101
738.5168	78
837.2604	78
838.2403	81
945.7837	57
