Mass spectrum: 1-tridecanoyl-sn-glycero-3-phosphoethanolamine; LC-ESI-QTOF; MS2; CE: 40;  [M+H]+
Name: 1-tridecanoyl-sn-glycero-3-phosphoethanolamine
Class: NA
Formula: C18H38NO7P
Exact mass: 411.2386
SMILES: [C@](COP(=O)(O)OCCN)([H])(O)COC(CCCCCCCCCCCC)=O
InChI: InChI=1S/C18H38NO7P/c1-2-3-4-5-6-7-8-9-10-11-12-18(21)24-15-17(20)16-26-27(22,23)25-14-13-19/h17,20H,2-16,19H2,1H3,(H,22,23)/t17-/m1/s1
Instrument: Agilent 6560Â Ion Mobility Q-TOF LC/MS
Instrument type: LC-ESI-QTOF
Ms type: MS2
Ion mode: POSITIVE
Ionization: ESI
Collision energy: 40
Column name: Acquity CSHC18
Retention time: 0.200 min
Base peak: 412.2520
Precursor m/z: 412.2520
Precursor type: [M+H]+
Precursor intensity: 116.5
m/z	relative intensity
70.0748	430
71.0896	436
73.0639	480
81.0684	485
85.1015	489
94.0707	506
95.0883	568
98.9865	816
103.0741	928
121.1052	965
194.9287	999
240.2368	430
