Mass spectrum: 5-trans Prostaglandin E2; ESI-TOF; MS2; CE: 0.6458333;  [M+H]+
Name: 5-trans Prostaglandin E2
Class: NA
Formula: C20H32O5
Exact mass: 352.22497
SMILES: CCCCCC(O)/C=C/[C@H]1C(O)CC(=O)C1C\C=C\CCCC(=O)O
InChI: InChI=1S/C20H32O5/c1-2-3-6-9-15(21)12-13-17-16(18(22)14-19(17)23)10-7-4-5-8-11-20(24)25/h4,7,12-13,15-17,19,21,23H,2-3,5-6,8-11,14H2,1H3,(H,24,25)/b7-4+,13-12+/t15?,16?,17-,19?/m1/s1
Instrument: waters xevo g2 TOF
Instrument type: ESI-TOF
Ms type: MS2
Ion mode: POSITIVE
Ionization: ESI
Collision energy: 0.6458333
Column name: Acquity CSHC18
Retention time: 3.663 min
Base peak: 353.23297
Precursor m/z: 353.23297
Precursor type: [M+H]+
m/z	relative intensity
79.0554	337
81.0704	467
91.0553	532
93.0706	592
107.0868	383
115.0536	79
117.0712	638
119.0867	531
121.0657	191
133.0648	293
141.0717	294
144.0869	39
145.1024	771
146.1043	61
147.0816	424
151.0751	31
155.0865	536
156.0899	64
157.1024	293
158.1046	35
159.0817	585
160.0849	43
161.097	259
163.1103	70
167.0715	88
169.1025	608
170.1019	58
183.1162	308
187.1121	239
189.1086	96
191.1079	53
193.101	91
197.0984	176
198.1292	35
201.1278	232
206.0036	144
209.1203	46
211.1117	244
215.143	301
216.1503	73
225.1254	155
227.1801	286
229.1954	151
239.1814	171
245.1898	29
247.2051	167
253.1955	184
254.1921	30
255.1751	107
257.1912	97
265.0779	127
271.2061	299
273.1846	169
281.1899	522
291.1967	20
299.2002	999
300.204	203
303.1629	867
304.1649	105
316.1975	44
317.2121	373
321.1333	51
329.1363	47
333.1861	78
