Mass spectrum: 5-AMINOPENTANOATE; LC-ESI-QTOF; MS2; CE: 20;  [M+H]+
Name: 5-AMINOPENTANOATE
Class: NA
Formula: C5H11NO2
Exact mass: 117.07898
SMILES: NCCCCC(O)=O
InChI: InChI=1S/C5H11NO2/c6-4-2-1-3-5(7)8/h1-4,6H2,(H,7,8)
Instrument: Agilent 6530Â Q-TOF LC/MS
Instrument type: LC-ESI-QTOF
Ms type: MS2
Ion mode: POSITIVE
Ionization: ESI
Collision energy: 20
Column name: NA
Retention time: 0.200 min
Base peak: 118.08884
Precursor m/z: 118.08884
Precursor type: [M+H]+
Precursor intensity: 96.5
m/z	relative intensity
41.0467	32
43.0365	38
44.0614	44
45.0368	71
53.0449	86
55.0933	98
55.2864	101
56.0793	108
56.609	115
57.0432	139
58.0868	142
59.0781	145
72.09	152
83.062	165
94.0368	417
100.0889	633
101.0717	723
118.0941	999
