Mass spectrum: CAY10408; ESI-TOF; MS2; CE: 0.6458333;  [M+H]+
Name: CAY10408
Class: NA
Formula: C23H36O5
Exact mass: 392.25627
SMILES: CCCC1(CCC1)[C@H](O)C/C=C/[C@H]1C(O)CC(=O)C1C/C=C\CCCC(=O)O
InChI: InChI=1S/C23H36O5/c1-2-13-23(14-8-15-23)21(26)11-7-10-18-17(19(24)16-20(18)25)9-5-3-4-6-12-22(27)28/h3,5,7,10,17-18,20-21,25-26H,2,4,6,8-9,11-16H2,1H3,(H,27,28)/b5-3-,10-7+/t17?,18-,20?,21-/m1/s1
Instrument: waters xevo g2 TOF
Instrument type: ESI-TOF
Ms type: MS2
Ion mode: POSITIVE
Ionization: ESI
Collision energy: 0.6458333
Column name: Acquity CSHC18
Retention time: 4.098 min
Base peak: 393.26427
Precursor m/z: 393.26427
Precursor type: [M+H]+
m/z	relative intensity
79.0544	264
81.0706	561
91.0557	273
93.0708	369
95.0865	317
97.0652	101
105.0708	339
107.0862	362
109.1021	798
111.0807	71
117.0716	392
119.0874	288
121.1018	308
123.1185	299
128.0646	62
129.0706	418
131.0871	453
133.0645	18
135.1185	754
137.1349	54
141.0708	174
142.0761	60
143.0872	217
145.1033	282
147.0828	275
149.1332	327
155.0869	226
156.0928	44
157.1024	329
159.1169	276
161.1143	93
163.0773	72
165.0233	171
167.0875	136
168.0888	43
169.1021	330
170.1066	52
171.1179	347
172.1193	52
173.133	400
179.0855	36
181.1036	223
183.1176	341
184.1227	66
185.1324	238
187.112	238
191.1443	96
199.1127	261
201.1277	93
203.1075	143
207.0877	40
209.1314	97
211.1481	232
212.1646	43
215.1077	114
217.1224	510
219.1131	124
221.0487	191
223.1055	104
225.1635	200
227.1785	162
229.1226	247
231.1369	92
233.1296	128
235.133	158
237.1628	271
238.1702	53
241.1605	87
243.1747	188
244.1775	35
247.131	48
255.1745	485
277.1962	48
293.2256	130
297.22	69
303.2153	274
304.2092	64
305.1062	68
311.2335	56
313.218	44
320.0722	766
321.1495	508
322.2244	216
339.1859	999
340.2346	480
341.24	33
357.2431	958
358.2458	302
395.1921	315
