Mass spectrum: 3,4-Dihydroxymandelic acid; LC-ESI-ITFT; MS2; CE: 60;  [M-H]-
Name: 3,4-Dihydroxymandelic acid
Class: Benzenoids; Phenols; Benzenediols
Formula: C8H8O5
Exact mass: 184.03717
SMILES: OC(C(O)=O)C1=CC=C(O)C(O)=C1
InChI: InChI=1S/C8H8O5/c9-5-2-1-4(3-6(5)10)7(11)8(12)13/h1-3,7,9-11H,(H,12,13)
Instrument: Thermo Scientific Q-Exactive Focus
Instrument type: LC-ESI-ITFT
Ms type: MS2
Ion mode: NEGATIVE
Ionization: ESI
Collision energy: 60
Column name: Acquity CSHC18
Retention time: 2.028 min
Base peak: 183.02991
Precursor m/z: 183.02991
Precursor type: [M-H]-
m/z	relative intensity
65.0021	123
65.0384	999
75.2388	74
93.0333	128
93.96	68
108.0205	187
110.4934	76
163.1327	68
180.6688	68
183.7174	70
