Mass spectrum: Hypotaurine; LC-ESI-ITFT; MS2; CE: 30;  [M+H]+
Name: Hypotaurine
Class: Organic acids and derivatives; Sulfinic acids and derivatives; Sulfinic acids
Formula: C2H7NO2S
Exact mass: 109.01975
SMILES: NCCS(O)=O
InChI: InChI=1S/C2H7NO2S/c3-1-2-6(4)5/h1-3H2,(H,4,5)
Instrument: Thermo Scientific Q-Exactive Focus
Instrument type: LC-ESI-ITFT
Ms type: MS2
Ion mode: POSITIVE
Ionization: ESI
Collision energy: 30
Column name: Acquity CSHC18
Retention time: 0.778 min
Base peak: 110.02703
Precursor m/z: 110.02703
Precursor type: [M+H]+
m/z	relative intensity
60.5832	373
61.1906	389
62.1787	411
62.9905	864
72.9376	999
80.1115	405
89.0328	402
98.5517	378
100.7785	394
114.5436	407
