Mass spectrum: Isoswertisin 2''-arabinoside; LC-ESI-QTOF; MS2; CE: 20-40eV;  [M+H]+
Name: Isoswertisin 2''-arabinoside
Class: Flavonoid C- glycosides
Formula: C27H30O14
Exact mass: 578.1636
SMILES: COC=1C=C(C=2C(C=C(C3=CC=C(C=C3)O)OC2C1C4(C(C(C(C(CO)(O4)[H])(O)[H])(O)[H])(OC5(C(C(C(CO5)(O)[H])(O)[H])(O)[H])[H])[H])[H])=O)O
InChI: InChI=1S/C27H30O14/c1-37-16-7-13(31)18-12(30)6-15(10-2-4-11(29)5-3-10)39-24(18)19(16)25-26(22(35)21(34)17(8-28)40-25)41-27-23(36)20(33)14(32)9-38-27/h2-7,14,17,20-23,25-29,31-36H,8-9H2,1H3
Instrument: Impact II, Bruker; Dionex 3000, Thermo Scientific
Instrument type: LC-ESI-QTOF
Ms type: MS2
Ion mode: POSITIVE
Ionization: ESI
Collision energy: 20-40eV
Column name: Acquity CSHC18
Retention time: 5.824 min
Base peak: 579.1710
Precursor m/z: 579.1710
Precursor type: [M+H]+
Precursor intensity: 277469.1
m/z	relative intensity
337.0888	376
579.3088	999
