Mass spectrum: L-methionine; LC-ESI-QTOF; MS2; CE: 15.00;  [M+H]+
Name: L-methionine
Class: NA
Formula: C5H11NO2S
Exact mass: 149.0510
SMILES: CSCCC(C(=O)O)N
InChI: InChI=1S/C5H11NO2S/c1-9-3-2-4(6)5(7)8/h4H,2-3,6H2,1H3,(H,7,8)
Instrument: Bruker MicrOTOF-Q
Instrument type: LC-ESI-QTOF
Ms type: MS2
Ion mode: POSITIVE
Ionization: ESI
Collision energy: 15.00
Column name: Acquity CSHC18
Retention time: NA
Base peak: 150.0583
Precursor m/z: 150.0583
Precursor type: [M+H]+
m/z	relative intensity
132.3812	5
133.03	999
133.1806	6
133.2186	10
133.274	5
133.4446	4
134.0321	72
135.0244	25
136.8021	4
136.9223	7
150.0563	43
