Mass spectrum: 25-Hydroxycholesterol; APCI-ITFT; MS2; CE: CID 45;  [M-H]-
Name: 25-Hydroxycholesterol
Class: NA
Formula: C27H46O2
Exact mass: 402.34978
SMILES: CC(CCCC(C)(C)O)C1CCC2C1(CCC3C2CC=C4C3(CCC(C4)O)C)C
InChI: InChI=1S/C27H46O2/c1-18(7-6-14-25(2,3)29)22-10-11-23-21-9-8-19-17-20(28)12-15-26(19,4)24(21)13-16-27(22,23)5/h8,18,20-24,28-29H,6-7,9-17H2,1-5H3
Instrument: Orbitrap Elite
Instrument type: APCI-ITFT
Ms type: MS2
Ion mode: NEGATIVE
Ionization: APCI
Collision energy: CID 45
Column name: Acquity CSHC18
Retention time: 0.080 min
Base peak: 401.34150
Precursor m/z: 401.34150
Precursor type: [M-H]-
Precursor intensity: 692393.1
m/z	relative intensity
329.2835	148
345.3132	40
357.3156	43
367.2997	38
383.3279	32
385.3116	999
386.313	87
