Mass spectrum: 1,3-DIAMINOPROPANE; LC-ESI-QTOF; MS2; CE: 10;  [M+H]+
Name: 1,3-DIAMINOPROPANE
Class: NA
Formula: C3H10N2
Exact mass: 74.0844
SMILES: NCCCN
InChI: InChI=1S/C3H10N2/c4-2-1-3-5/h1-5H2
Instrument: Agilent 6530Â Q-TOF LC/MS
Instrument type: LC-ESI-QTOF
Ms type: MS2
Ion mode: POSITIVE
Ionization: ESI
Collision energy: 10
Column name: NA
Retention time: 0.200 min
Base peak: 75.09250
Precursor m/z: 75.09250
Precursor type: [M+H]+
Precursor intensity: 101.5
m/z	relative intensity
41.0398	20
43.0418	69
58.0662	100
75.0928	999
