Mass spectrum: Sulprostone; ESI-TOF; MS2; CE: 0.6458333;  [M+H]+
Name: Sulprostone
Class: NA
Formula: C23H31NO7S
Exact mass: 465.18212
SMILES: O=C1[C@H](C/C=C\CCCC(NS(=O)(C)=O)=O)[C@@H](/C=C/[C@@H](O)COC2=CC=CC=C2)[C@H](O)C1
InChI: InChI=1S/C23H31NO7S/c1-32(29,30)24-23(28)12-8-3-2-7-11-19-20(22(27)15-21(19)26)14-13-17(25)16-31-18-9-5-4-6-10-18/h2,4-7,9-10,13-14,17,19-20,22,25,27H,3,8,11-12,15-16H2,1H3,(H,24,28)/b7-2-,14-13+/t17-,19-,20-,22-/m1/s1
Instrument: waters xevo g2 TOF
Instrument type: ESI-TOF
Ms type: MS2
Ion mode: POSITIVE
Ionization: ESI
Collision energy: 0.6458333
Column name: Acquity CSHC18
Retention time: 2.827 min
Base peak: 466.19012
Precursor m/z: 466.19012
Precursor type: [M+H]+
m/z	relative intensity
79.0542	143
91.0556	685
95.0518	100
105.0711	999
107.0508	443
117.0714	595
119.0877	396
121.0663	266
128.064	172
129.0716	924
131.0502	459
143.0868	500
145.0845	239
147.0818	432
154.0782	200
155.0846	114
157.0663	333
162.0242	119
163.0759	103
166.0781	87
169.1031	372
171.1179	527
175.0761	143
179.0849	100
181.1028	206
183.0831	72
185.0956	186
187.1129	386
189.1289	251
197.0972	267
199.1122	200
205.1001	108
213.1282	275
217.1234	93
223.112	236
224.1152	57
241.1226	411
259.1335	742
260.1366	95
300.0022	52
313.0523	139
335.1655	147
354.1369	328
355.1359	39
368.0272	101
408.0568	596
409.0583	133
410.127	156
412.0511	717
413.053	158
420.1352	72
430.1692	42
