Mass spectrum: Kaempferol; LC-ESI-QTOF; MS2; CE: 15.00;  [M-H]-
Name: Kaempferol
Class: NA
Formula: C15H10O6
Exact mass: 286.0477
SMILES: C1=CC(=CC=C1C2=C(C(=O)C3=C(C=C(C=C3O2)O)O)O)O
InChI: InChI=1S/C15H10O6/c16-8-3-1-7(2-4-8)15-14(20)13(19)12-10(18)5-9(17)6-11(12)21-15/h1-6,16-18,20H
Instrument: Bruker MicrOTOF-Q
Instrument type: LC-ESI-QTOF
Ms type: MS2
Ion mode: NEGATIVE
Ionization: ESI
Collision energy: 15.00
Column name: Acquity CSHC18
Retention time: NA
Base peak: 285.0405
Precursor m/z: 285.0405
Precursor type: [M-H]-
m/z	relative intensity
44.9328	13
45.7978	8
46.5321	15
47.7446	10
48.8833	9
49.6523	12
50.4934	9
51.3927	12
52.0778	17
53.6645	12
54.6706	12
55.6549	15
57.2871	18
58.6274	13
59.5606	19
60.0147	9
61.4165	12
63.5869	11
64.4996	10
65.7821	9
67.1543	13
68.0276	10
68.8465	12
69.974	16
70.798	13
72.0751	10
72.8829	13
74.0237	10
74.566	12
76.0174	13
77.9616	13
79.3178	13
80.7749	11
82.9633	13
84.0897	16
84.9404	15
86.1664	14
87.6611	15
88.2823	13
89.0634	14
90.289	16
91.6735	13
93.1983	20
93.9451	14
94.5485	12
96.0785	14
97.8178	12
98.535	13
99.4923	14
102.1596	13
105.6134	13
106.7891	16
108.9636	12
111.6387	11
114.4162	13
116.6751	15
120.2069	14
122.291	13
123.0084	46
125.0153	14
126.9731	13
128.2898	16
130.0397	15
135.8739	13
141.1709	12
144.4032	15
148.0556	13
149.0393	17
151.9202	19
160.8991	17
168.8146	20
173.6289	17
176.9467	10
182.0975	32
188.2535	20
189.4104	23
192.8351	20
196.8601	29
199.4636	32
201.5104	42
202.9303	14
205.576	15
210.1208	34
215.0919	83
217.5857	14
219.4536	22
228.5368	40
236.1903	12
240.4413	57
245.4453	14
247.4287	14
248.7585	14
249.8941	14
251.2583	13
254.0645	24
258.2089	69
261.8994	18
264.2138	17
268.8636	23
274.2183	16
276.114	14
277.1324	11
279.1795	14
281.5219	15
282.5217	8
288.7395	999
295.325	9
296.4137	9
297.8441	11
299.6569	11
300.3734	14
301.7658	10
302.7975	9
305.3939	21
308.0996	8
313.3937	12
314.9601	9
316.7314	10
317.4355	20
322.0603	9
326.3375	14
327.3018	14
327.9829	17
343.3542	12
344.5729	20
349.844	11
355.4913	11
363.909	14
365.5876	9
375.4299	13
378.2522	14
379.847	14
381.2802	15
391.3872	14
396.3159	17
413.7583	16
419.4886	20
421.3728	12
425.3141	19
426.362	12
435.4692	9
437.9405	17
454.2011	10
458.455	16
474.7705	10
478.7905	8
504.0961	15
505.2593	12
511.6257	15
519.2636	17
535.1013	13
541.9283	16
543.9034	10
558.7307	11
563.9135	12
572.954	14
575.4091	8
583.6001	8
605.2767	8
661.775	8
670.6217	8
683.8086	17
755.1771	8
843.4361	8
852.1134	14
873.6615	10
895.3015	12
915.5552	9
925.7143	8
942.992	8
944.6696	11
