Mass spectrum: D-Mannose; LC-ESI-ITFT; MS2; CE: 10;  [M-H]-
Name: D-Mannose
Class: Organic oxygen compounds; Organooxygen compounds; Carbohydrates and carbohydrate conjugates
Formula: C6H12O6
Exact mass: 180.06339
SMILES: OC[C@H]1OC(O)[C@@H](O)[C@@H](O)[C@@H]1O
InChI: InChI=1S/C6H12O6/c7-1-2-3(8)4(9)5(10)6(11)12-2/h2-11H,1H2/t2-,3-,4+,5+,6?/m1/s1
Instrument: Thermo Scientific Q-Exactive Focus
Instrument type: LC-ESI-ITFT
Ms type: MS2
Ion mode: NEGATIVE
Ionization: ESI
Collision energy: 10
Column name: Acquity CSHC18
Retention time: 0.363 min
Base peak: 179.05611
Precursor m/z: 179.05611
Precursor type: [M-H]-
m/z	relative intensity
58.0048	16
59.0127	999
71.0126	363
72.9919	10
85.0283	19
89.0232	561
101.0232	269
113.0233	92
119.0338	209
179.0554	13
