Mass spectrum: Helicin; LC-ESI-QTOF; MS2; CE: 17.18;  [M+HCOOH-H]-
Name: Helicin
Class: NA
Formula: C13H16O7
Exact mass: 284.0896
SMILES: C1=CC=C(C(=C1)C=O)OC2C(C(C(C(O2)CO)O)O)O
InChI: InChI=1S/C13H16O7/c14-5-7-3-1-2-4-8(7)19-13-12(18)11(17)10(16)9(6-15)20-13/h1-5,9-13,15-18H,6H2
Instrument: Bruker MicrOTOF-Q
Instrument type: LC-ESI-QTOF
Ms type: MS2
Ion mode: NEGATIVE
Ionization: ESI
Collision energy: 17.18
Column name: Acquity CSHC18
Retention time: NA
Base peak: 329.0878
Precursor m/z: 329.0878
Precursor type: [M+HCOOH-H]-
m/z	relative intensity
45.2286	44
45.8838	48
46.6054	56
47.9192	55
50.1608	60
51.4469	61
52.428	49
53.5604	41
55.1361	59
56.7077	44
57.7382	50
59.1914	50
60.3125	52
61.3742	55
62.5577	53
64.7679	61
66.8513	52
68.2665	46
69.0045	41
70.6047	48
72.1222	44
73.1443	43
73.9851	49
75.929	59
77.6267	56
80.247	54
82.938	48
83.8534	49
84.907	48
85.8801	44
86.6433	40
87.1661	46
88.4869	74
89.9358	46
91.1785	47
91.7471	59
93.1587	476
94.4452	59
94.9646	49
95.6282	40
96.4583	53
98.57	48
100.055	41
101.1483	46
101.8608	58
102.6955	50
103.892	43
105.2322	83
105.7106	55
106.1509	44
107.4392	56
108.5169	77
108.952	52
109.5679	42
110.5348	65
111.4604	47
112.3063	50
112.9573	52
113.7314	55
115.1771	37
115.7732	49
118.9642	45
121.0796	999
123.2033	125
124.2632	49
125.4518	40
126.959	29
135.168	40
174.034	53
181.2877	34
186.045	59
202.5241	31
203.4708	55
204.0979	29
206.3377	37
220.0991	32
221.1798	35
221.8536	62
229.2922	41
254.3606	49
275.2274	37
304.2589	37
306.3443	40
334.9926	52
433.7309	55
521.4127	46
524.6383	35
578.4128	35
589.6382	31
600.6859	50
750.3116	32
767.0071	29
771.9311	49
948.8183	34
966.5484	38
991.5446	34
