Mass spectrum: Bilobetin; LC-ESI-QFT; MS2; CE: 15,30,45 (NCE);  [M+H]+
Name: Bilobetin
Class: NA
Formula: C31H20O10
Exact mass: 552.1056
SMILES: COC1=C(C=C(C=C1)C1=CC(=O)C2=C(O)C=C(O)C=C2O1)C1=C2OC(=CC(=O)C2=C(O)C=C1O)C1=CC=C(O)C=C1
InChI: InChI=1S/C31H20O10/c1-39-24-7-4-15(26-12-22(37)29-19(34)9-17(33)10-27(29)40-26)8-18(24)28-20(35)11-21(36)30-23(38)13-25(41-31(28)30)14-2-5-16(32)6-3-14/h2-13,32-36H,1H3
Instrument: QE Focus, Thermo Scientfic; UPLC I-Class, Waters
Instrument type: LC-ESI-QFT
Ms type: MS2
Ion mode: POSITIVE
Ionization: ESI
Collision energy: 15,30,45 (NCE)
Column name: Acquity CSHC18
Retention time: 3.065 min
Base peak: 553.1136
Precursor m/z: 553.1136
Precursor type: [M+H]+
Precursor intensity: 25538160
m/z	relative intensity
55.6219	2
60.1488	2
60.6893	2
69.3586	2
73.858	2
78.0933	2
86.2555	2
86.7932	2
90.0783	2
102.5542	2
121.0289	188
153.0182	16
164.2464	2
283.0609	11
297.0764	12
321.0753	5
325.0752	3
376.056	4
401.1019	15
402.0362	3
403.0474	12
417.061	29
418.0692	15
435.0715	4
521.0888	59
553.1137	999
