Mass spectrum: Phenylacetylglutamine; LC-ESI-ITFT; MS2; CE: 60;  [M-H]-
Name: Phenylacetylglutamine
Class: Organic acids and derivatives; Carboxylic acids and derivatives; Amino acids, peptides, and analogues
Formula: C13H16N2O4
Exact mass: 264.11101
SMILES: NC(=O)CC[C@H](NC(=O)CC1=CC=CC=C1)C(O)=O
InChI: InChI=1S/C13H16N2O4/c14-11(16)7-6-10(13(18)19)15-12(17)8-9-4-2-1-3-5-9/h1-5,10H,6-8H2,(H2,14,16)(H,15,17)(H,18,19)/t10-/m0/s1
Instrument: Thermo Scientific Q-Exactive Focus
Instrument type: LC-ESI-ITFT
Ms type: MS2
Ion mode: NEGATIVE
Ionization: ESI
Collision energy: 60
Column name: Acquity CSHC18
Retention time: 2.026 min
Base peak: 263.10373
Precursor m/z: 263.10373
Precursor type: [M-H]-
m/z	relative intensity
58.0286	999
74.0235	605
82.0286	368
84.0442	936
127.0502	299
138.1733	98
139.8317	110
153.217	116
178.4372	95
210.8658	98
