Mass spectrum: Dopamine; ESI-TOF; MS2; CE: 0.6458333;  [M+H]+
Name: Dopamine
Class: NA
Formula: C8H11NO2
Exact mass: 153.07898
SMILES: NCCC1=CC=C(O)C(O)=C1
InChI: InChI=1S/C8H11NO2/c9-4-3-6-1-2-7(10)8(11)5-6/h1-2,5,10-11H,3-4,9H2
Instrument: waters xevo g2 TOF
Instrument type: ESI-TOF
Ms type: MS2
Ion mode: POSITIVE
Ionization: ESI
Collision energy: 0.6458333
Column name: Acquity CSHC18
Retention time: 0.563 min
Base peak: 154.08698
Precursor m/z: 154.08698
Precursor type: [M+H]+
m/z	relative intensity
69.034	1
81.0708	40
82.0743	2
91.1482	999
92.0584	247
99.9704	1
103.0557	1
109.0295	58
110.0605	2
113.9646	2
119.0785	495
120.0533	92
121.0578	6
122.061	4
137.7931	43
151.076	13
154.0819	9
164.024	8
165.0559	1
166.0865	2
172.8638	3
174.0536	2
175.0071	17
191.0012	6
205.9893	1
208.992	2
210.0072	3
211.0124	1
256.0975	2
274.1077	9
275.1125	1
296.0904	3
297.0717	7
313.0134	27
314.0204	6
324.0228	2
325.0749	1
326.07	11
327.0291	11
330.042	16
331.0842	1
344.057	1
360.0769	15
361.0807	2
384.9752	1
398.0242	3
399.0292	1
413.9968	5
415.0024	8
416.0014	2
562.0668	1
