Mass spectrum: Furocoumarin; LC-ESI-QTOF; MS2; CE: 35.00;  [M+H]+
Name: Furocoumarin
Class: NA
Formula: C11H6O3
Exact mass: 186.0317
SMILES: C1=CC(=O)OC2=CC3=C(C=CO3)C=C21
InChI: InChI=1S/C11H6O3/c12-11-2-1-7-5-8-3-4-13-9(8)6-10(7)14-11/h1-6H
Instrument: Bruker MicrOTOF-Q
Instrument type: LC-ESI-QTOF
Ms type: MS2
Ion mode: POSITIVE
Ionization: ESI
Collision energy: 35.00
Column name: Acquity CSHC18
Retention time: NA
Base peak: 187.0393
Precursor m/z: 187.0393
Precursor type: [M+H]+
m/z	relative intensity
102.0392	6
113.0342	11
114.0446	7
115.0536	77
116.0578	7
130.04	7
131.0479	999
132.0507	110
133.0589	4
158.0326	10
159.0391	8
