Mass spectrum: Tryptophan; LC-ESI-QTOF; MS2; CE: Ramped;  [M+H]+
Name: Tryptophan
Class: Amino acid
Formula: C11H12N2O2
Exact mass: 204.0899
SMILES: C1=CC=C2C(=C1)C(=CN2)C[C@@H](C(=O)O)N
InChI: InChI=1S/C11H12N2O2/c12-9(11(14)15)5-7-6-13-10-4-2-1-3-8(7)10/h1-4,6,9,13H,5,12H2,(H,14,15)/t9-/m0/s1
Instrument: Impact II qTOF
Instrument type: LC-ESI-QTOF
Ms type: MS2
Ion mode: POSITIVE
Ionization: ESI
Collision energy: Ramped
Column name: Acquity CSH C18 column (particle size 1.7 μm, column length 2.1 × 50 mm) (Waters)
Retention time: 3.9 min
Base peak: 205.0970
Precursor m/z: 205.0970
Precursor type: [M+H]+
m/z	relative intensity
130.065	189
146.06	549
155.118	319
188.07	999
205.097	859
