Mass spectrum: Allantoin; LC-ESI-QTOF; MS2; CE: 15.00;  [M+Na]+
Name: Allantoin
Class: NA
Formula: C4H6N4O3
Exact mass: 158.0440
SMILES: C1(C(=O)NC(=O)N1)NC(=O)N
InChI: InChI=1S/C4H6N4O3/c5-3(10)6-1-2(9)8-4(11)7-1/h1H,(H3,5,6,10)(H2,7,8,9,11)
Instrument: Bruker MicrOTOF-Q
Instrument type: LC-ESI-QTOF
Ms type: MS2
Ion mode: POSITIVE
Ionization: ESI
Collision energy: 15.00
Column name: Acquity CSHC18
Retention time: NA
Base peak: 181.0332
Precursor m/z: 181.0332
Precursor type: [M+Na]+
m/z	relative intensity
139.007	999
159.2451	411
175.115	293
197.0004	499
200.2014	367
