Mass spectrum: L-tyrosine; LC-ESI-QTOF; MS2; CE: -10, -35, -60V;  [M-H]-
Name: L-tyrosine
Class: NA
Formula: C9H11NO3
Exact mass: 181.0739
SMILES: C1=CC(=CC=C1CC(C(=O)O)N)O
InChI: InChI=1S/C9H11NO3/c10-8(9(12)13)5-6-1-3-7(11)4-2-6/h1-4,8,11H,5,10H2,(H,12,13)
Instrument: TripleToF 5600; Sciex
Instrument type: LC-ESI-QTOF
Ms type: MS2
Ion mode: NEGATIVE
Ionization: ESI
Collision energy: -10, -35, -60V
Column name: Acquity CSHC18
Retention time: 0.770 min
Base peak: 180.0692
Precursor m/z: 180.0692
Precursor type: [M-H]-
Precursor intensity: 172426.7
m/z	relative intensity
72.0084	84
93.0341	76
119.0486	174
134.0608	14
136.0738	20
142.1173	34
142.1273	34
163.0407	537
164.0445	103
172.0966	9
172.1336	86
173.1389	11
174.1118	61
179.5066	41
180.0668	999
