Mass spectrum: (20R,22S,25S)-22,26-Epimino-5alpha-cholestan-3beta,16alpha-20-triol; APCI-ITFT; MS2; CE: 70 HCD;  [M+H]+
Name: (20R,22S,25S)-22,26-Epimino-5alpha-cholestan-3beta,16alpha-20-triol
Class: NA
Formula: C27H47NO3
Exact mass: 433.35559
SMILES: C[C@H](CN1)CC[C@H]1[C@](C)(O)[C@H]2[C@H](O)C[C@@]3([H])[C@]4([H])CC[C@@]5([H])C[C@@H](O)CC[C@]5(C)[C@@]4([H])CC[C@]23C
InChI: InChI=1S/C27H47NO3/c1-16-5-8-23(28-15-16)27(4,31)24-22(30)14-21-19-7-6-17-13-18(29)9-11-25(17,2)20(19)10-12-26(21,24)3/h16-24,28-31H,5-15H2,1-4H3/t16-,17-,18-,19+,20-,21-,22+,23-,24-,25-,26-,27-/m0/s1
Instrument: Orbitrap Elite
Instrument type: APCI-ITFT
Ms type: MS2
Ion mode: POSITIVE
Ionization: APCI
Collision energy: 70 HCD
Column name: Acquity CSHC18
Retention time: 0.064 min
Base peak: 434.36110
Precursor m/z: 434.36110
Precursor type: [M+H]+
Precursor intensity: 2662975000
m/z	relative intensity
55.9265	4
65.5242	4
77.0387	20
79.0544	187
80.0497	11
81.0701	157
82.065	18
83.0856	10
84.0809	24
84.2534	4
91.0545	197
93.0702	215
94.065	15
95.0488	17
95.0734	10
95.0854	156
95.5782	4
96.0808	24
97.0643	5
97.1011	7
98.0966	151
103.0546	14
103.303	5
105.0447	28
105.0703	431
107.086	230
108.0813	21
109.0646	5
109.1016	82
110.0968	9
111.1048	18
114.2293	4
115.4111	4
117.0706	38
117.1311	4
119.0855	253
121.1015	91
122.0958	15
123.1167	25
123.597	4
124.1123	151
125.12	17
126.128	133
129.0694	15
131.0858	66
133.1012	155
134.097	8
135.1176	71
136.1118	14
138.1279	11
140.1337	5
142.1224	20
143.0855	16
144.0937	13
145.102	116
147.1172	261
148.1125	19
149.1201	11
149.1325	45
150.1282	109
151.1355	5
152.1434	9
157.1011	20
159.1178	179
161.1334	999
162.1278	23
163.1127	15
163.1483	5
164.1439	88
165.1505	9
166.159	5
171.1165	21
173.1329	70
173.5372	5
175.1498	16
177.3049	4
185.1334	23
187.1474	17
199.1481	39
200.1549	5
201.1639	12
205.0106	4
213.1637	28
215.1807	30
227.1786	8
240.1857	4
255.212	69
258.075	4
261.5205	4
265.9829	4
268.0768	4
271.7752	5
273.2257	11
287.0571	4
331.2278	4
356.221	4
398.3397	137
406.0344	5
416.3681	9
421.8057	5
430.2519	4
434.3032	7
434.3529	32
