Mass spectrum: S-ADENOSYLHOMOCYSTEINE; LC-ESI-QFT; MS2; CE: 30eV;  [M-H]-
Name: S-ADENOSYLHOMOCYSTEINE
Class: NA
Formula: C14H20N6O5S
Exact mass: 384.12159
SMILES: N[C@@H](CCSC[C@H]1O[C@H]([C@H](O)[C@@H]1O)N1C=NC2=C(N)N=CN=C12)C(O)=O
InChI: InChI=1S/C14H20N6O5S/c15-6(14(23)24)1-2-26-3-7-9(21)10(22)13(25-7)20-5-19-8-11(16)17-4-18-12(8)20/h4-7,9-10,13,21-22H,1-3,15H2,(H,23,24)(H2,16,17,18)/t6-,7+,9+,10+,13+/m0/s1
Instrument: Q-Exactive Orbitrap, Thermo Scientfic; Ultimate 3000 HPLC, Thermo Scientfic
Instrument type: LC-ESI-QFT
Ms type: MS2
Ion mode: NEGATIVE
Ionization: ESI
Collision energy: 30eV
Column name: Acquity CSHC18
Retention time: 1.015 min
Base peak: 383.1143
Precursor m/z: 383.1143
Precursor type: [M-H]-
Precursor intensity: 128
m/z	relative intensity
50.3546	14
53.9503	12
57.3346	13
59.0123	120
59.3262	13
60.2401	13
61.9534	14
66.1165	14
70.0282	27
70.8318	13
71.0123	432
74.9895	812
80.1491	15
84.7726	15
86.0053	23
86.9895	999
90.5071	13
94.8216	14
98.4691	14
100.0389	38
105	183
107.0349	35
110.0597	16
110.9896	16
114.0004	20
114.8204	14
116.0161	279
116.9998	16
119.173	16
126.2272	18
128.5388	20
129.0001	267
130.0034	17
131.0159	60
132.0475	33
135.043	136
135.0491	634
135.0539	30
136.8771	15
142.0495	19
144.0473	123
147.0108	139
148.0426	21
154.0496	23
158.0271	28
176.0376	472
188.0377	739
189.041	17
219.69	15
248.0597	234
298.4159	19
383.1144	367
