Mass spectrum: Propranolol; ESI-TOF; MS2; CE: 6.0000000;  [M+H]+
Name: Propranolol
Class: NA
Formula: C16H21NO2
Exact mass: 259.15723
SMILES: CC(C)NCC(O)COC1=CC=CC2=CC=CC=C12
InChI: InChI=1S/C16H21NO2/c1-12(2)17-10-14(18)11-19-16-9-5-7-13-6-3-4-8-15(13)16/h3-9,12,14,17-18H,10-11H2,1-2H3
Instrument: waters xevo g2 TOF
Instrument type: ESI-TOF
Ms type: MS2
Ion mode: POSITIVE
Ionization: ESI
Collision energy: 6.0000000
Column name: Acquity CSHC18
Retention time: 2.204 min
Base peak: 260.16523
Precursor m/z: 260.16523
Precursor type: [M+H]+
m/z	relative intensity
98.097	2
113.9642	3
116.1077	34
117.111	3
129.0561	3
132.1026	5
135.9922	2
141.075	1
143.0674	3
155.078	5
156.0741	1
157.0654	14
158.0686	1
173.0813	33
183.081	78
184.0843	10
200.1061	1
218.1151	81
219.118	9
223.1158	1
240.0925	4
242.1549	16
243.1582	2
260.7165	999
