Mass spectrum: 8-Methylsulfinyloctyl glucosinolate; LC-ESI-QTOF; MS2; CE: 23.56;  [M-O3S+H]+
Name: 8-Methylsulfinyloctyl glucosinolate
Class: NA
Formula: C16H31NO10S3
Exact mass: 493.1110
SMILES: CS(=O)CCCCCCCCC(=NOS(=O)(=O)O)SC1C(C(C(C(O1)CO)O)O)O
InChI: InChI=1S/C16H31NO10S3/c1-29(22)9-7-5-3-2-4-6-8-12(17-27-30(23,24)25)28-16-15(21)14(20)13(19)11(10-18)26-16/h11,13-16,18-21H,2-10H2,1H3,(H,23,24,25)
Instrument: Bruker MicrOTOF-Q
Instrument type: LC-ESI-QTOF
Ms type: MS2
Ion mode: POSITIVE
Ionization: ESI
Collision energy: 23.56
Column name: Acquity CSHC18
Retention time: NA
Base peak: 414.1615
Precursor m/z: 414.1615
Precursor type: [M-O3S+H]+
m/z	relative intensity
110.0934	7
111.1042	5
119.0833	6
121.0993	6
122.0966	7
124.1113	13
127.0357	8
128.0496	9
130.0584	4
134.0954	467
135.0961	30
136.0638	39
136.1108	433
137.1158	74
138.0429	3
138.1266	879
139.1308	93
140.1301	4
141.072	5
142.074	5
143.0887	14
145.0479	5
148.0618	24
153.0721	26
155.0701	5
156.0813	3
162.0408	48
163.0473	2
168.0852	13
169.073	6
170.1	674
170.2981	4
171.1031	70
172.097	31
173.1044	5
175.0353	3
175.1148	6
176.1095	6
184.1156	999
185.122	365
186.1212	68
187.115	28
188.1062	14
190.1261	65
197.1191	3
200.1055	8
202.1255	259
203.1147	66
204.12	21
216.0878	308
218.122	72
219.1258	7
234.0991	42
236.0988	4
252.1093	185
253.1132	23
254.1018	17
263.1006	4
281.097	27
282.1068	4
