Mass spectrum: Scoparone; LC-ESI-ITFT; MS2; CE: 45eV;  [M+H]+
Name: Scoparone
Class: coumarin
Formula: C11H10O4
Exact mass: 206.0579
SMILES: COC1=C(C=C2C(=C1)C=CC(=O)O2)OC
InChI: InChI=1S/C11H10O4/c1-13-9-5-7-3-4-11(12)15-8(7)6-10(9)14-2/h3-6H,1-2H3
Instrument: LTQ Orbitrap XL, Thermo Scientfic; Dionex Ultimate 300
Instrument type: LC-ESI-ITFT
Ms type: MS2
Ion mode: POSITIVE
Ionization: ESI
Collision energy: 45eV
Column name: Alltima C18
Retention time: 18.11 min
Base peak: 207.0632
Precursor m/z: 207.0632
Precursor type: [M+H]+
m/z	relative intensity
110.9962	2
120.834	378
135.8937	999
147.8866	940
175.9519	14
191.0935	351
