Mass spectrum: H-Leu-Ile-OH; LC-ESI-QTOF; MS2; CE: 15.00;  [M+H]+
Name: H-Leu-Ile-OH
Class: NA
Formula: C12H24N2O3
Exact mass: 244.1787
SMILES: CCC(C)C(C(=O)O)NC(=O)C(CC(C)C)N
InChI: InChI=1S/C12H24N2O3/c1-5-8(4)10(12(16)17)14-11(15)9(13)6-7(2)3/h7-10H,5-6,13H2,1-4H3,(H,14,15)(H,16,17)
Instrument: Bruker MicrOTOF-Q
Instrument type: LC-ESI-QTOF
Ms type: MS2
Ion mode: POSITIVE
Ionization: ESI
Collision energy: 15.00
Column name: Acquity CSHC18
Retention time: NA
Base peak: 245.1860
Precursor m/z: 245.1860
Precursor type: [M+H]+
m/z	relative intensity
90.19	9
181.17	25
182.15	15
182.22	6
183.18	13
186.16	6
187.12	9
199.06	9
199.18	999
199.42	9
199.49	6
200.18	107
201.18	8
210.15	11
217.21	10
221.93	7
227.17	47
228.16	28
245.18	970
246.19	99
246.46	7
247.19	6
466.44	7
565.38	7
