Mass spectrum: GLUCOSAMINATE; LC-ESI-QTOF; MS2; CE: 20;  [M+H]+
Name: GLUCOSAMINATE
Class: NA
Formula: C6H13NO6
Exact mass: 195.07429
SMILES: C(C(C(C(C(C(=O)O)N)O)O)O)O
InChI: InChI=1S/C6H13NO6/c7-3(6(12)13)5(11)4(10)2(9)1-8/h2-5,8-11H,1,7H2,(H,12,13)
Instrument: Agilent 6530Â Q-TOF LC/MS
Instrument type: LC-ESI-QTOF
Ms type: MS2
Ion mode: POSITIVE
Ionization: ESI
Collision energy: 20
Column name: NA
Retention time: 0.200 min
Base peak: 196.07797
Precursor m/z: 196.07797
Precursor type: [M+H]+
Precursor intensity: 116.5
m/z	relative intensity
41.0465	55
42.0383	59
43.0301	59
44.0611	60
45.0385	60
46.0343	62
55.0203	62
56.0539	63
57.0494	66
58.0538	68
60.0665	83
61.0454	88
67.0146	90
68.065	98
69.0424	101
70.0485	102
71.0248	103
72.0727	109
73.0393	112
74.0468	123
84.0571	123
85.0531	130
86.0682	142
87.044	160
91.0402	163
94.0226	164
96.0591	168
98.0634	169
102.0561	185
103.0398	204
104.054	220
112.0418	249
114.0771	278
115.0463	315
116.0721	350
132.094	451
133.0641	496
150.0733	590
178.0721	690
196.0844	999
