Mass spectrum: Citrulline; LC-ESI-ITFT; MS2; CE: 100;  [M-H]-
Name: Citrulline
Class: Organic acids and derivatives; Carboxylic acids and derivatives; Amino acids, peptides, and analogues
Formula: C6H13N3O3
Exact mass: 175.09569
SMILES: N[C@@H](CCCNC(N)=O)C(O)=O
InChI: InChI=1S/C6H13N3O3/c7-4(5(10)11)2-1-3-9-6(8)12/h4H,1-3,7H2,(H,10,11)(H3,8,9,12)/t4-/m0/s1
Instrument: Thermo Scientific Q-Exactive Focus
Instrument type: LC-ESI-ITFT
Ms type: MS2
Ion mode: NEGATIVE
Ionization: ESI
Collision energy: 100
Column name: Acquity CSHC18
Retention time: 2.587 min
Base peak: 174.08841
Precursor m/z: 174.08841
Precursor type: [M-H]-
m/z	relative intensity
56.5445	879
84.8334	885
101.5909	854
111.0912	860
113.0176	999
122.0523	855
146.4929	842
158.1957	822
160.3982	962
161.227	867
