Mass spectrum: 3-METHYLADENINE; LC-ESI-QTOF; MS2; CE: 20;  [M+H]+
Name: 3-METHYLADENINE
Class: NA
Formula: C6H7N5
Exact mass: 149.07015
SMILES: CN1C=NC(N)=C2N=CN=C12
InChI: InChI=1S/C6H7N5/c1-11-3-10-5(7)4-6(11)9-2-8-4/h2-3H,7H2,1H3
Instrument: Agilent 6530Â Q-TOF LC/MS
Instrument type: LC-ESI-QTOF
Ms type: MS2
Ion mode: POSITIVE
Ionization: ESI
Collision energy: 20
Column name: NA
Retention time: 0.200 min
Base peak: 150.07779
Precursor m/z: 150.07779
Precursor type: [M+H]+
Precursor intensity: 145.5
m/z	relative intensity
42.0383	126
55.0331	144
69.0473	166
82.049	211
92.019	247
96.0619	250
106.037	260
108.056	290
109.0532	302
123.081	362
133.0641	414
135.0515	461
150.1155	999
