Mass spectrum: Raspberry ketone; LC-ESI-QTOF; MS2; CE: 15.00;  [M+Na]+
Name: Raspberry ketone
Class: NA
Formula: C10H12O2
Exact mass: 164.0837
SMILES: CC(=O)CCC1=CC=C(C=C1)O
InChI: InChI=1S/C10H12O2/c1-8(11)2-3-9-4-6-10(12)7-5-9/h4-7,12H,2-3H2,1H3
Instrument: Bruker MicrOTOF-Q
Instrument type: LC-ESI-QTOF
Ms type: MS2
Ion mode: POSITIVE
Ionization: ESI
Collision energy: 15.00
Column name: Acquity CSHC18
Retention time: NA
Base peak: 187.0730
Precursor m/z: 187.0730
Precursor type: [M+Na]+
m/z	relative intensity
72.83	1
94.04	2
106.62	1
106.74	1
106.97	4
107.05	999
107.2	3
107.27	3
107.32	2
107.46	3
107.54	1
107.59	1
107.68	2
108.05	60
108.18	2
108.26	1
108.32	2
108.79	1
109.06	2
109.48	1
115.94	2
121.06	2
122.04	1
131.04	5
149.06	2
150.06	2
159.18	1
204.95	2
683.81	1
