Mass spectrum: Phloroglucinol; ESI-TOF; MS2; CE: 6.0000000;  [M+H]+
Name: Phloroglucinol
Class: NA
Formula: C6H6O3
Exact mass: 126.03169
SMILES: OC1=CC(O)=CC(O)=C1
InChI: InChI=1S/C6H6O3/c7-4-1-5(8)3-6(9)2-4/h1-3,7-9H
Instrument: waters xevo g2 TOF
Instrument type: ESI-TOF
Ms type: MS2
Ion mode: POSITIVE
Ionization: ESI
Collision energy: 6.0000000
Column name: Acquity CSHC18
Retention time: 0.758 min
Base peak: 127.03969
Precursor m/z: 127.03969
Precursor type: [M+H]+
m/z	relative intensity
109.0289	3
127.0394	999
128.0431	84
181.9666	2
199.9769	2
211.9776	1
215.014	2
223.9649	4
225.9558	33
226.9628	33
233.0454	2
243.9665	6
251.0549	14
257.9832	8
266.9835	8
267.9885	1
305.9826	2
313.0488	1
323.9932	1
323.9946	2
351.9876	17
352.9928	2
421.0713	3
432.0137	16
529.0864	1
558.0472	2
