Mass spectrum: luteolin; LC-ESI-QTOF; MS2; CE: -10, -35, -60V;  [M-H]-
Name: luteolin
Class: NA
Formula: C15H10O6
Exact mass: 286.0477
SMILES: C1=CC(=C(C=C1C2=CC(=O)C3=C(C=C(C=C3O2)O)O)O)O
InChI: InChI=1S/C15H10O6/c16-8-4-11(19)15-12(20)6-13(21-14(15)5-8)7-1-2-9(17)10(18)3-7/h1-6,16-19H
Instrument: TripleToF 5600; Sciex
Instrument type: LC-ESI-QTOF
Ms type: MS2
Ion mode: NEGATIVE
Ionization: ESI
Collision energy: -10, -35, -60V
Column name: Acquity CSHC18
Retention time: 23.420 min
Base peak: 285.0441
Precursor m/z: 285.0441
Precursor type: [M-H]-
Precursor intensity: 32086.13
m/z	relative intensity
65.0045	22
83.0156	6
107.0169	10
132.0184	32
133.0308	133
134.0405	14
150.9996	28
199.0406	9
201.0191	9
204.9731	8
217.0496	11
243.0265	4
255.028	35
256.0321	9
283.027	45
285.0397	999
