Mass spectrum: gallic acid methyl ester; LC-ESI-ITFT; MS2; CE: 0.3;  [M-H]-
Name: gallic acid methyl ester
Class: phenolic acid ester
Formula: C8H8O5
Exact mass: 184.0372
SMILES: COC(=O)C1=CC(=C(C(=C1)O)O)O
InChI: InChI=1S/C8H8O5/c1-13-8(12)4-2-5(9)7(11)6(10)3-4/h2-3,9-11H,1H3
Instrument: LTQ-Orbitrap XL hybrid mass spectrometer (Thermo Scientific)
Instrument type: LC-ESI-ITFT
Ms type: MS2
Ion mode: NEGATIVE
Ionization: ESI
Collision energy: 0.3
Column name: Acquity CSHC18
Retention time: 3.714 min
Base peak: 183.0301
Precursor m/z: 183.0301
Precursor type: [M-H]-
Precursor intensity: 7886530
m/z	relative intensity
68.5188	1
71.0131	1
71.7764	2
79.5291	1
81.054	1
111.0093	7
123.3562	1
124.0171	36
136.988	4
140.0119	11
163.0836	1
167.0968	7
168.0068	166
168.0503	1
168.0555	1
181.6023	2
181.9578	7
182.3148	2
182.6689	3
182.9972	6
183.0044	6
183.0303	999
183.0566	6
