Mass spectrum: Dihydrolipoate; LC-ESI-QTOF; MS2; CE: 20 / 50;  [M-H]-
Name: Dihydrolipoate
Class: Medium-chain fatty acids
Formula: C8H16O2S2
Exact mass: 208.05917
SMILES: OC(=O)CCCCC(S)CCS
InChI: InChI=1S/C8H16O2S2/c9-8(10)4-2-1-3-7(12)5-6-11/h7,11-12H,1-6H2,(H,9,10)
Instrument: impact II
Instrument type: LC-ESI-QTOF
Ms type: MS2
Ion mode: NEGATIVE
Ionization: ESI
Collision energy: 20 / 50
Column name: Acquity CSHC18
Retention time: 1.598 min
Base peak: 207.05200
Precursor m/z: 207.05200
Precursor type: [M-H]-
m/z	relative intensity
32.9806	540
80.9651	130
129.0743	881
139.0762	584
173.0637	999
174.067	134
209.0488	114
