Mass spectrum: Prostaglandin E2 methyl ester; ESI-TOF; MS2; CE: 6.0000000;  [M+H]+
Name: Prostaglandin E2 methyl ester
Class: NA
Formula: C21H34O5
Exact mass: 366.24062
SMILES: O=C1[C@H](C/C=C\CCCC(OC)=O)[C@@H](/C=C/[C@@H](O)CCCCC)[C@H](O)C1
InChI: InChI=1S/C21H34O5/c1-3-4-7-10-16(22)13-14-18-17(19(23)15-20(18)24)11-8-5-6-9-12-21(25)26-2/h5,8,13-14,16-18,20,22,24H,3-4,6-7,9-12,15H2,1-2H3/b8-5-,14-13+/t16-,17+,18+,20+/m0/s1
Instrument: waters xevo g2 TOF
Instrument type: ESI-TOF
Ms type: MS2
Ion mode: POSITIVE
Ionization: ESI
Collision energy: 6.0000000
Column name: Acquity CSHC18
Retention time: 3.965 min
Base peak: 367.24862
Precursor m/z: 367.24862
Precursor type: [M+H]+
m/z	relative intensity
123.1187	9
133.1007	3
147.0807	7
151.1116	20
152.0485	7
167.1076	24
172.0842	26
173.1144	5
186.1078	8
187.1489	8
189.0886	21
194.0956	276
197.1412	2
201.1288	21
207.1096	18
215.1425	45
221.115	26
229.1962	44
233.1546	20
235.1348	10
245.1888	86
246.1898	6
247.2067	77
253.1927	21
255.1725	30
257.1908	61
258.1949	8
271.2048	99
273.1843	70
274.1843	6
275.1973	9
277.2156	202
278.2178	35
279.2315	262
280.2349	69
281.1898	161
282.1945	35
289.2158	61
299.2003	745
300.2031	157
303.2319	82
304.2365	14
305.2122	220
306.2148	32
313.2161	114
317.2109	500
318.2151	93
319.2183	10
331.2281	999
332.2812	95
333.2233	28
345.2443	27
349.2445	954
350.2408	190
351.2442	20
360.2305	10
368.2102	14
