Mass spectrum: L-Arginine; LC-ESI-ITFT; MS2; CE: 60;  [M+H]+
Name: L-Arginine
Class: Organic acids and derivatives; Carboxylic acids and derivatives; Amino acids, peptides, and analogues
Formula: C6H14N4O2
Exact mass: 174.11168
SMILES: N[C@@H](CCCNC(N)=N)C(O)=O
InChI: InChI=1S/C6H14N4O2/c7-4(5(11)12)2-1-3-10-6(8)9/h4H,1-3,7H2,(H,11,12)(H4,8,9,10)/t4-/m0/s1
Instrument: Thermo Scientific Q-Exactive Focus
Instrument type: LC-ESI-ITFT
Ms type: MS2
Ion mode: POSITIVE
Ionization: ESI
Collision energy: 60
Column name: Acquity CSHC18
Retention time: 1.750 min
Base peak: 175.11896
Precursor m/z: 175.11896
Precursor type: [M+H]+
m/z	relative intensity
60.0561	17
63.4438	11
68.0499	70
70.0656	999
75.5634	11
90.3969	12
126.4066	12
165.7371	11
168.5503	11
184.3832	12
