Mass spectrum: Quercetin-3-rutinoside-7-glucoside; LC-ESI-ITFT; MS2; CE: 35eV;  [M+H]+
Name: Quercetin-3-rutinoside-7-glucoside
Class: Flavonoid
Formula: C33H40O21
Exact mass: 772.2062
SMILES: CC1C(C(C(C(O1)OCC2C(C(C(C(O2)OC3=C(OC4=CC(=CC(=C4C3=O)O)OC5C(C(C(C(O5)CO)O)O)O)C6=CC(=C(C=C6)O)O)O)O)O)O)O)O
InChI: InChI=1S/C33H40O21/c1-9-19(38)23(42)26(45)31(49-9)48-8-17-21(40)25(44)28(47)33(53-17)54-30-22(41)18-14(37)5-11(50-32-27(46)24(43)20(39)16(7-34)52-32)6-15(18)51-29(30)10-2-3-12(35)13(36)4-10/h2-6,9,16-17,19-21,23-28,31-40,42-47H,7-8H2,1H3
Instrument: LTQ Orbitrap XL, Thermo Scientfic; Dionex Ultimate 300
Instrument type: LC-ESI-ITFT
Ms type: MS2
Ion mode: POSITIVE
Ionization: ESI
Collision energy: 35eV
Column name: Lichrospher C18 Column 250*4 5um, Interchim
Retention time: 32.9 min
Base peak: 773.2138
Precursor m/z: 773.2138
Precursor type: [M+H]+
m/z	relative intensity
256.9038	2
303.1243	517
308.9012	2
314.993	6
326.9504	5
345.0297	21
369.1296	9
399.126	2
410.9819	3
413.1046	13
429.0793	3
431.1831	14
447.0252	12
449.0188	69
455.1305	2
464.9196	999
473.2739	3
488.9271	4
491.0024	6
507.019	3
557.0785	4
574.9175	7
593.0888	6
609.204	3
610.1818	18
610.9385	190
626.1823	36
626.9026	305
653.0225	2
737.2662	5
