Mass spectrum: 4-GUANIDINOBUTANOATE; LC-ESI-QTOF; MS2; CE: 20;  [M+H]+
Name: 4-GUANIDINOBUTANOATE
Class: NA
Formula: C5H11N3O2
Exact mass: 145.0851
SMILES: NC(=N)NCCCC(O)=O
InChI: InChI=1S/C5H11N3O2/c6-5(7)8-3-1-2-4(9)10/h1-3H2,(H,9,10)(H4,6,7,8)
Instrument: Agilent 6530Â Q-TOF LC/MS
Instrument type: LC-ESI-QTOF
Ms type: MS2
Ion mode: POSITIVE
Ionization: ESI
Collision energy: 20
Column name: NA
Retention time: 0.200 min
Base peak: 146.09439
Precursor m/z: 146.09439
Precursor type: [M+H]+
Precursor intensity: 85.5
m/z	relative intensity
41.0399	33
43.0209	49
44.0146	66
45.0355	84
56.051	86
60.0571	121
69.0353	210
86.0618	260
87.0454	595
104.0725	701
111.0573	708
146.0958	999
