Mass spectrum: alpha-D-Sophorose; ESI-TOF; MS2; CE: 6.0000000;  [M+H]+
Name: alpha-D-Sophorose
Class: NA
Formula: C12H22O11
Exact mass: 342.11621
SMILES: O([C@@H]1O[C@H](CO)[C@@H](O)[C@H](O)[C@H]1O)[C@@H]2[C@@H](O)[C@H](O)[C@H](O[C@@H]2O)CO
InChI: InChI=1S/C12H22O11/c13-1-3-6(16)8(18)10(11(20)21-3)23-12-9(19)7(17)5(15)4(2-14)22-12/h3-20H,1-2H2/t3-,4-,5-,6-,7+,8+,9-,10-,11+,12+/m1/s1
Instrument: waters xevo g2 TOF
Instrument type: ESI-TOF
Ms type: MS2
Ion mode: POSITIVE
Ionization: ESI
Collision energy: 6.0000000
Column name: Acquity CSHC18
Retention time: 0.532 min
Base peak: 343.12421
Precursor m/z: 343.12421
Precursor type: [M+H]+
m/z	relative intensity
85.0281	80
97.0284	39
98.9757	1
127.039	91
145.05	116
158.9963	46
163.0601	1
172.9767	53
172.9771	55
182.0317	32
191.0241	298
191.5396	39
201.0064	1
216.978	1
261.0287	18
275.9935	561
277	124
279.0015	14
281.0701	53
321.0494	31
325.113	304
326.1139	39
337.0238	39
360.1494	51
362.0969	642
362.5987	115
363.0985	56
365.1054	999
366.1078	136
367.1134	31
370.0849	31
371.0796	33
396.0357	49
399.043	51
456.0542	101
487.1595	35
533.1562	216
533.6627	102
541.1409	44
542.1435	61
559.6124	36
704.2132	77
704.7173	46
707.2199	189
738.1498	194
739.1534	70
