Mass spectrum: Sinapinic acid; LC-ESI-QTOF; MS2; CE: 50eV;  [M-H]-
Name: Sinapinic acid
Class: Phenylpropanoid
Formula: C11H12O5
Exact mass: 224.0685
SMILES: COC1=CC(=CC(=C1O)OC)C=CC(=O)O
InChI: InChI=1S/C11H12O5/c1-15-8-5-7(3-4-10(12)13)6-9(16-2)11(8)14/h3-6,14H,1-2H3,(H,12,13)
Instrument: TIMS-TOF Pro, Bruker Daltonik; Elute UHPLC System, Bruker Daltonik
Instrument type: LC-ESI-QTOF
Ms type: MS2
Ion mode: NEGATIVE
Ionization: ESI
Collision energy: 50eV
Column name: Acquity CSHC18
Retention time: 5.319 min
Base peak: 223.0595
Precursor m/z: 223.0595
Precursor type: [M-H]-
Precursor intensity: 4577.75
m/z	relative intensity
53.0005	17
62.8462	22
65.0018	121
93.0327	999
94.0361	65
117.0321	25
120.0172	17
121.0281	263
149.0228	182
163.0365	43
164.0467	271
165.0195	49
166.0216	19
179.0696	42
193.0119	401
194.0164	32
208.0358	387
209.0399	42
223.0548	20
