Mass spectrum: TRANS-4-HYDROXY-L-PROLINE; LC-ESI-QTOF; MS2; CE: 10;  [M-H]-
Name: TRANS-4-HYDROXY-L-PROLINE
Class: NA
Formula: C5H9NO3
Exact mass: 131.05824
SMILES: O[C@H]1CN[C@@H](C1)C(O)=O
InChI: InChI=1S/C5H9NO3/c7-3-1-4(5(8)9)6-2-3/h3-4,6-7H,1-2H2,(H,8,9)/t3-,4+/m1/s1
Instrument: Agilent 6530Â Q-TOF LC/MS
Instrument type: LC-ESI-QTOF
Ms type: MS2
Ion mode: NEGATIVE
Ionization: ESI
Collision energy: 10
Column name: NA
Retention time: 0.200 min
Base peak: 130.04920
Precursor m/z: 130.04920
Precursor type: [M-H]-
Precursor intensity: 120
m/z	relative intensity
66.0325	107
71.0161	117
73.0284	132
82.0326	187
84.0524	194
128.046	422
130.0688	999
