Mass spectrum: Phloretin; ESI-TOF; MS2; CE: 0.6458333;  [M+H]+
Name: Phloretin
Class: NA
Formula: C15H14O5
Exact mass: 274.08412
SMILES: OC1=CC=C(CCC(=O)C2=C(O)C=C(O)C=C2O)C=C1
InChI: InChI=1S/C15H14O5/c16-10-4-1-9(2-5-10)3-6-12(18)15-13(19)7-11(17)8-14(15)20/h1-2,4-5,7-8,16-17,19-20H,3,6H2
Instrument: waters xevo g2 TOF
Instrument type: ESI-TOF
Ms type: MS2
Ion mode: POSITIVE
Ionization: ESI
Collision energy: 0.6458333
Column name: Acquity CSHC18
Retention time: 2.327 min
Base peak: 275.09212
Precursor m/z: 275.09212
Precursor type: [M+H]+
m/z	relative intensity
67.0192	8
69.0345	10
71.0501	13
81.0343	3
85.0294	45
86.0327	1
91.0552	8
95.0499	3
96.9958	1
99.0448	3
107.0499	12
109.0274	3
119.05	48
120.0537	3
121.0657	8
123.0449	17
125.0245	4
129.0552	14
135.0446	6
147.0632	245
148.048	26
153.0191	999
153.9973	42
163.0397	1
165.0191	23
177.0183	10
179.0349	12
189.0504	7
191.0341	14
195.0295	112
196.0327	12
203.0345	10
204.0377	1
207.0465	3
219.0317	73
220.0744	4
221.0408	2
231.0294	11
232.035	1
237.0406	1
243.0295	6
245.0536	17
246.0584	3
249.0707	1
261.0398	21
263.0561	62
264.0575	9
270.0194	1
271.1066	58
272.0641	19
273.1711	243
274.0798	47
275.082	13
279.0508	4
281.066	11
282.0699	1
285.0771	38
286.0814	6
287.0679	1
293.1242	1
297.0743	30
298.0779	5
301.0704	16
305.0668	2
311.0234	4
315.0868	32
316.0902	5
323.087	5
329.0683	3
331.0994	3
339.0863	50
340.0907	10
351.0876	14
352.0913	2
363.0839	7
365.1109	10
366.1069	3
369.0965	3
371.0723	1
382.0998	1
383.1121	19
384.1161	7
386.009	1
389.0902	2
391.0998	2
393.0978	1
399.1087	8
401.1235	18
402.1271	3
407.1058	7
413.1235	1
417.1184	12
419.134	34
420.1374	8
423.1064	1
425.1158	5
426.1225	1
429.1166	2
433.1137	1
435.1292	22
436.1321	4
443.1333	5
457.1105	6
459.129	3
461.1411	3
467.1336	1
483.1221	1
489.0486	2
491.0471	1
509.1428	2
511.1596	2
527.1554	2
528.1595	1
529.1709	1
545.166	3
563.1761	1
565.1921	2
579.1711	7
580.1733	1
581.1856	12
582.1904	7
583.1927	1
587.1929	2
601.1096	4
603.1693	86
604.1721	22
605.1755	8
606.1745	1
619.1369	7
620.1385	2
633.1771	1
635.104	1
727.244	6
728.2473	2
749.2281	2
760.1081	1
796.1493	1
873.2996	1
890.2552	1
906.1627	2
916.7026	1
917.2032	1
922.1562	2
927.2413	1
1068.2161	5
1069.22	1
1180.3396	6
1180.8398	10
1181.3438	9
1181.8422	3
1182.3548	1
1183.3441	13
1184.3491	5
1185.343	2
1199.3117	9
