Mass spectrum: (-)-Perillyl alcohol; LC-ESI-QTOF; MS2; CE: 15.00;  [2M-H2O+H]+
Name: (-)-Perillyl alcohol
Class: NA
Formula: C10H16O
Exact mass: 152.1201
SMILES: CC(=C)C1CCC(=CC1)CO
InChI: InChI=1S/C10H16O/c1-8(2)10-5-3-9(7-11)4-6-10/h3,10-11H,1,4-7H2,2H3
Instrument: Bruker MicrOTOF-Q
Instrument type: LC-ESI-QTOF
Ms type: MS2
Ion mode: POSITIVE
Ionization: ESI
Collision energy: 15.00
Column name: Acquity CSHC18
Retention time: NA
Base peak: 287.2369
Precursor m/z: 287.2369
Precursor type: [2M-H2O+H]+
m/z	relative intensity
133.1	26
135.1148	27
147.1162	29
149.1317	29
159.1168	31
161.1322	33
165.1275	33
171.1177	34
173.1327	34
175.1481	36
185.1329	39
187.1474	39
189.1642	45
199.1487	46
201.1647	50
203.1741	63
205.159	65
213.164	67
214.1678	68
227.1797	69
231.1751	100
241.1967	104
259.2409	119
269.2272	197
270.2302	216
287.2377	687
288.2403	999
