Mass spectrum: Naringenin-7-O-rutinoside; LC-ESI-QTOF; MS2; CE: 50eV;  [M+H]+
Name: Naringenin-7-O-rutinoside
Class: Flavanone
Formula: C27H32O14
Exact mass: 580.1792
SMILES: CC1C(C(C(C(O1)OCC2C(C(C(C(O2)OC3=CC(=C4C(=O)CC(OC4=C3)C5=CC=C(C=C5)O)O)O)O)O)O)O)O
InChI: InChI=1S/C27H32O14/c1-10-20(31)22(33)24(35)26(38-10)37-9-18-21(32)23(34)25(36)27(41-18)39-13-6-14(29)19-15(30)8-16(40-17(19)7-13)11-2-4-12(28)5-3-11/h2-7,10,16,18,20-29,31-36H,8-9H2,1H3
Instrument: TIMS-TOF Pro, Bruker Daltonik; Elute UHPLC System, Bruker Daltonik
Instrument type: LC-ESI-QTOF
Ms type: MS2
Ion mode: POSITIVE
Ionization: ESI
Collision energy: 50eV
Column name: Acquity CSHC18
Retention time: 5.513 min
Base peak: 581.1846
Precursor m/z: 581.1846
Precursor type: [M+H]+
Precursor intensity: 14705.5
m/z	relative intensity
57.0333	10
71.0487	48
75.0803	3
78.2574	5
84.0524	5
85.0283	152
92.5176	4
129.0531	79
130.059	5
147.044	24
147.0633	85
153.0197	57
173.0438	5
195.0315	35
226.9677	3
231.0277	13
244.9957	2
245.0454	11
257.0688	4
263.056	4
271.0598	17
273.0409	31
273.0592	36
273.0776	999
273.5471	6
274.0801	115
275.0818	8
281.0638	33
285.0732	18
297.0695	10
315.0881	80
316.0915	20
339.0316	8
339.0842	64
341.0885	4
356.7116	8
365.1029	9
369.1004	15
381.0995	13
383.1123	51
384.1098	18
399.1077	20
401.1198	28
403.1274	9
405.0985	3
417.1167	36
419.1022	9
419.1314	74
420.1357	17
435.0696	9
435.1292	219
436.1292	33
443.0751	5
479.2211	3
581.1654	4
