Mass spectrum: Argininosuccinic acid; LC-ESI-QTOF; MS2; CE: 15 / 50;  [M+H]+
Name: Argininosuccinic acid
Class: NA
Formula: C10H18N4O6
Exact mass: 290.12263
SMILES: N[C@@H](CCCNC(=N)N[C@@H](CC(O)=O)C(O)=O)C(O)=O
InChI: InChI=1S/C10H18N4O6/c11-5(8(17)18)2-1-3-13-10(12)14-6(9(19)20)4-7(15)16/h5-6H,1-4,11H2,(H,15,16)(H,17,18)(H,19,20)(H3,12,13,14)/t5-,6-/m0/s1
Instrument: impact II
Instrument type: LC-ESI-QTOF
Ms type: MS2
Ion mode: POSITIVE
Ionization: ESI
Collision energy: 15 / 50
Column name: Acquity CSHC18
Retention time: 0.692 min
Base peak: 291.13040
Precursor m/z: 291.13040
Precursor type: [M+H]+
m/z	relative intensity
70.0654	137
291.13	999
292.132	143
