Mass spectrum: lanosterol; ESI-TOF; MS2; CE: 0.6458333;  [M+H]+
Name: lanosterol
Class: NA
Formula: C30H50O
Exact mass: 426.38617
SMILES: [H]OC2([H])(C([H])([H])C([H])([H])C1(C3=C(C([H])([H])C([H])([H])C1([H])C2(C([H])([H])[H])(C([H])([H])[H]))C4(C([H])([H])[H])(C([H])([H])C([H])([H])C([H])(C([H])(C([H])([H])[H])C([H])([H])C([H])([H])C([H])=C(C([H])([H])[H])C([H])([H])[H])C4(C([H])([H])[H])(C([H])([H])C3([H])([H]))))(C([H])([H])[H]))
InChI: InChI=1S/C30H50O/c1-20(2)10-9-11-21(3)22-14-18-30(8)24-12-13-25-27(4,5)26(31)16-17-28(25,6)23(24)15-19-29(22,30)7/h10,21-22,25-26,31H,9,11-19H2,1-8H3
Instrument: waters xevo g2 TOF
Instrument type: ESI-TOF
Ms type: MS2
Ion mode: POSITIVE
Ionization: ESI
Collision energy: 0.6458333
Column name: Acquity CSHC18
Retention time: 11.122 min
Base peak: 427.39417
Precursor m/z: 427.39417
Precursor type: [M+H]+
m/z	relative intensity
69.0712	76
83.0861	103
93.0707	239
95.0855	561
97.1008	74
105.0702	200
107.0859	462
109.1018	878
119.0857	200
121.1017	482
123.117	311
133.0999	133
135.1172	418
137.1331	135
147.1166	240
149.1326	544
161.1319	276
163.1477	208
175.1476	141
177.1651	79
189.1629	159
191.1797	706
192.1829	2
203.1799	379
205.195	344
206.198	2
217.1949	359
219.2109	2
229.1961	71
243.2098	121
257.2261	107
299.2722	85
323.2239	2
323.2265	2
327.3068	2
409.3835	999
410.386	334
411.3638	385
412.3675	110
426.3857	155
427.3902	106
449.3749	145
450.3803	68
680.081	2
875.7558	2
876.7608	2
