Mass spectrum: Gluconolactone; ESI-TOF; MS2; CE: 6.0000000;  [M+H]+
Name: Gluconolactone
Class: NA
Formula: C6H10O6
Exact mass: 178.04774
SMILES: OCC1OC(=O)C(O)C(O)C1O
InChI: InChI=1S/C6H10O6/c7-1-2-3(8)4(9)5(10)6(11)12-2/h2-5,7-10H,1H2
Instrument: waters xevo g2 TOF
Instrument type: ESI-TOF
Ms type: MS2
Ion mode: POSITIVE
Ionization: ESI
Collision energy: 6.0000000
Column name: Acquity CSHC18
Retention time: 0.586 min
Base peak: 179.05574
Precursor m/z: 179.05574
Precursor type: [M+H]+
m/z	relative intensity
73.0293	22
111.0449	10
115.0397	58
125.024	26
129.0542	13
133.0504	67
139.0398	153
143.0344	5
157.0497	22
179.0558	73
193.0712	58
211.0827	12
219.0483	15
230.0565	19
233.064	999
234.0672	55
235.0691	8
249.9785	10
258.1706	10
272.9919	8
309.9999	31
311.0058	8
340.0102	6
350.0287	6
354.0245	32
431.0925	6
442.042	7
443.0496	5
443.1382	77
460.0489	15
474.0665	6
474.0681	38
475.071	10
