Mass spectrum: N1-ACETYLSPERMINE; LC-ESI-QTOF; MS2; CE: 10;  [M+H]+
Name: N1-ACETYLSPERMINE
Class: NA
Formula: C12H28N4O
Exact mass: 244.22631
SMILES: CC(=O)NCCCNCCCCNCCCN
InChI: InChI=1S/C12H28N4O/c1-12(17)16-11-5-10-15-8-3-2-7-14-9-4-6-13/h14-15H,2-11,13H2,1H3,(H,16,17)
Instrument: Agilent 6530Â Q-TOF LC/MS
Instrument type: LC-ESI-QTOF
Ms type: MS2
Ion mode: POSITIVE
Ionization: ESI
Collision energy: 10
Column name: NA
Retention time: 0.200 min
Base peak: 245.22941
Precursor m/z: 245.22941
Precursor type: [M+H]+
Precursor intensity: 134.5
m/z	relative intensity
58.0645	160
72.0772	185
84.0829	264
100.1023	805
112.1352	919
129.1685	926
171.1794	937
245.2746	999
