Mass spectrum: 17-trans Prostaglandin E3; ESI-TOF; MS2; CE: 0.6458333;  [M+H]+
Name: 17-trans Prostaglandin E3
Class: NA
Formula: C20H30O5
Exact mass: 350.20932
SMILES: O=C1[C@H](C/C=C\CCCC(O)=O)[C@@H](/C=C/[C@@H](O)C/C=C/CC)[C@H](O)C1
InChI: InChI=1S/C20H30O5/c1-2-3-6-9-15(21)12-13-17-16(18(22)14-19(17)23)10-7-4-5-8-11-20(24)25/h3-4,6-7,12-13,15-17,19,21,23H,2,5,8-11,14H2,1H3,(H,24,25)/b6-3+,7-4-,13-12+/t15-,16+,17+,19+/m0/s1
Instrument: waters xevo g2 TOF
Instrument type: ESI-TOF
Ms type: MS2
Ion mode: POSITIVE
Ionization: ESI
Collision energy: 0.6458333
Column name: Acquity CSHC18
Retention time: 3.382 min
Base peak: 351.21732
Precursor m/z: 351.21732
Precursor type: [M+H]+
m/z	relative intensity
67.0541	188
81.0709	392
93.0706	340
95.0861	440
105.0714	741
107.0869	547
109.0669	139
115.0559	116
117.0708	576
119.0874	605
121.1021	426
123.0845	62
128.0653	240
129.0714	890
131.0873	706
133.0659	214
141.0719	443
143.087	999
145.1018	648
147.0798	331
149.0974	147
153.0699	122
155.0871	687
157.1027	636
159.1173	487
161.1318	99
163.1112	65
169.1021	858
171.1172	627
173.0974	190
175.1142	126
179.0864	154
182.1084	100
183.1171	482
184.1198	59
185.0972	374
189.0909	121
195.1175	402
197.1134	95
199.1118	316
201.128	291
209.1329	266
219.1076	177
221.1417	39
227.1423	68
229.1204	57
233.1237	52
235.1668	90
237.1616	181
243.1757	112
245.0356	59
253.1524	25
263.0565	67
269.1888	204
279.1754	808
297.1374	627
315.1949	699
317.0508	76
