Mass spectrum: 16:0 Lyso PG; ESI-TOF; MS2; CE: 6.0000000;  [M+H]+
Name: 16:0 Lyso PG
Class: NA
Formula: C22H44NaO9P
Exact mass: 506.26206
SMILES: [H]OC([H])([H])C([H])(O[H])C([H])([H])OP(=O)([O-])OC([H])([H])C([H])(O[H])C([H])([H])OC(=O)C([H])([H])C([H])([H])C([H])([H])C([H])([H])C([H])([H])C([H])([H])C([H])([H])C([H])([H])C([H])([H])C([H])([H])C([H])([H])C([H])([H])C([H])([H])C([H])([H])C([H])([H])[H].[Na+]
InChI: InChI=1S/C22H45O9P.Na/c1-2-3-4-5-6-7-8-9-10-11-12-13-14-15-22(26)29-17-21(25)19-31-32(27,28)30-18-20(24)16-23;/h20-21,23-25H,2-19H2,1H3,(H,27,28);/q;+1/p-1
Instrument: waters xevo g2 TOF
Instrument type: ESI-TOF
Ms type: MS2
Ion mode: POSITIVE
Ionization: ESI
Collision energy: 6.0000000
Column name: Acquity CSHC18
Retention time: 10.248 min
Base peak: 507.27006
Precursor m/z: 507.27006
Precursor type: [M+H]+
m/z	relative intensity
225.1036	10
228.9788	29
253.1184	10
281.0952	68
281.5978	16
289.0832	11
313.2746	999
314.2781	225
353.2657	17
393.2401	14
431.1903	12
449.2671	310
450.2703	88
451.2727	11
467.2774	329
468.281	80
477.2102	17
477.7113	9
485.2874	122
486.2905	13
495.2552	18
504.2618	146
504.7632	40
505.2631	16
507.2696	346
