Mass spectrum: O-acyl sugar AS4; LC-ESI-QTOF; MS2; CE: 22.5eV; [M+Na]+
Name: O-acyl sugar AS4
Class: O-acyl sugar
Formula: C28H48O14
Exact mass: 608.3044
SMILES: CC(CCC)C(=O)O[C@H]1[C@H](O[C@H](CO)[C@@H](OC(=O)C(C)CC)[C@@H]1OC(=O)C(C)CC)O[C@]1(CO)O[C@H](CO)[C@@H](O)[C@@H]1O
InChI: InChI=1S/C28H48O14/c1-7-10-16(6)26(36)40-22-21(39-25(35)15(5)9-3)20(38-24(34)14(4)8-2)18(12-30)37-27(22)42-28(13-31)23(33)19(32)17(11-29)41-28/h14-23,27,29-33H,7-13H2,1-6H3/t14?,15?,16?,17-,18-,19-,20-,21+,22-,23+,27-,28+/m1/s1
Instrument: Microtof-q MS
Instrument type: LC-ESI-QTOF
Ms type: MS2
Ion mode: POSITIVE
Ionization: ESI
Collision energy: 22.5eV
Column name: Acquity CSH C18 column (particle size 1.7 μm, column length 2.1 × 50 mm) (Waters)
Retention time: NA
Base peak: 631.2962
Precursor m/z: 631.2962
Precursor type: [M+Na]+
m/z	relative intensity
185.0419	27
353.1575	77
367.1625	25
469.2403	999
631.2962	190
