Mass spectrum: H-Leu-Val-OH; LC-ESI-QTOF; MS2; CE: 26.95;  [2M-H]-
Name: H-Leu-Val-OH
Class: NA
Formula: C11H22N2O3
Exact mass: 230.1630
SMILES: CC(C)CC(C(=O)NC(C(C)C)C(=O)O)N
InChI: InChI=1S/C11H22N2O3/c1-6(2)5-8(12)10(14)13-9(7(3)4)11(15)16/h6-9H,5,12H2,1-4H3,(H,13,14)(H,15,16)
Instrument: Bruker MicrOTOF-Q
Instrument type: LC-ESI-QTOF
Ms type: MS2
Ion mode: NEGATIVE
Ionization: ESI
Collision energy: 26.95
Column name: Acquity CSHC18
Retention time: NA
Base peak: 459.3188
Precursor m/z: 459.3188
Precursor type: [2M-H]-
m/z	relative intensity
185.17	111
229.16	999
230.16	134
