Mass spectrum: Cyanidin-3-coumaroyl rutinoside-5-glucoside; LC-ESI-ITFT; MS2; CE: 35eV;  [M]+
Name: Cyanidin-3-coumaroyl rutinoside-5-glucoside
Class: Anthocyanidin
Formula: [C42H47O22]+
Exact mass: 903.2553
SMILES: CC1C(C(C(C(O1)OCC2C(C(C(C(O2)OC3=C([O+]=C4C=C(C=C(C4=C3)OC5C(C(C(C(O5)CO)O)O)O)O)C6=CC(=C(C=C6)O)O)O)O)O)O)O)OC(=O)C=CC7=CC=C(C=C7)O
InChI: InChI=1S/C42H46O22/c1-16-38(64-29(48)9-4-17-2-6-19(44)7-3-17)34(53)37(56)40(58-16)57-15-28-31(50)33(52)36(55)42(63-28)61-26-13-21-24(59-39(26)18-5-8-22(46)23(47)10-18)11-20(45)12-25(21)60-41-35(54)32(51)30(49)27(14-43)62-41/h2-13,16,27-28,30-38,40-43,49-56H,14-15H2,1H3,(H3-,44,45,46,47,48)/p+1
Instrument: LTQ Orbitrap XL, Thermo Scientfic; Dionex Ultimate 300
Instrument type: LC-ESI-ITFT
Ms type: MS2
Ion mode: POSITIVE
Ionization: ESI
Collision energy: 35eV
Column name: Lichrospher C18 Column 250*4 5um, Interchim
Retention time: 56.42 min
Base peak: 903.2582
Precursor m/z: 903.2582
Precursor type: [M]+
m/z	relative intensity
286.9854	169
498.1781	135
535.1738	135
541.1205	169
559.1536	186
573.2751	135
589.0528	220
693.1296	304
705.4017	135
719.3083	169
723.037	152
724.1609	169
725.28	406
740.4062	169
741.256	999
751.3502	169
788.6751	321
812.5462	135
813.2222	135
820.7544	135
841.3575	169
859.2424	491
866.4423	169
867.4168	220
871.1542	440
871.934	169
873.3077	169
