Mass spectrum: Hydroxykynurenine; LC-ESI-ITFT; MS2; CE: 10;  [M-H]-
Name: Hydroxykynurenine
Class: Organic oxygen compounds; Organooxygen compounds; Carbonyl compounds
Formula: C10H12N2O4
Exact mass: 224.07971
SMILES: NC(CC(=O)C1=C(N)C(O)=CC=C1)C(O)=O
InChI: InChI=1S/C10H12N2O4/c11-6(10(15)16)4-8(14)5-2-1-3-7(13)9(5)12/h1-3,6,13H,4,11-12H2,(H,15,16)
Instrument: Thermo Scientific Q-Exactive Focus
Instrument type: LC-ESI-ITFT
Ms type: MS2
Ion mode: NEGATIVE
Ionization: ESI
Collision energy: 10
Column name: Acquity CSHC18
Retention time: 0.360 min
Base peak: 223.07243
Precursor m/z: 223.07243
Precursor type: [M-H]-
m/z	relative intensity
72.0079	104
108.0442	76
134.06	48
144.0443	103
147.0315	93
160.0394	35
162.0551	999
188.0345	292
205.061	51
206.0452	889
