Mass spectrum: OROTATE; LC-ESI-QFT; MS2; CE: 30eV;  [M+H]+
Name: OROTATE
Class: NA
Formula: C5H4N2O4
Exact mass: 156.01711
SMILES: OC(=O)C1=CC(=O)NC(=O)N1
InChI: InChI=1S/C5H4N2O4/c8-3-1-2(4(9)10)6-5(11)7-3/h1H,(H,9,10)(H2,6,7,8,11)
Instrument: Q-Exactive Orbitrap, Thermo Scientfic; Ultimate 3000 HPLC, Thermo Scientfic
Instrument type: LC-ESI-QFT
Ms type: MS2
Ion mode: POSITIVE
Ionization: ESI
Collision energy: 30eV
Column name: Acquity CSHC18
Retention time: 0.608 min
Base peak: 157.0244
Precursor m/z: 157.0244
Precursor type: [M+H]+
Precursor intensity: 171
m/z	relative intensity
57.0526	17
69.0036	17
86.0426	18
95.068	21
97.0585	21
102.1103	25
106.9781	45
111.0021	87
138.9968	122
139.0939	192
157.1096	205
158.0082	517
158.1362	999
