Mass spectrum: Serpentine; ESI-QTOF; MS2; CE: 30 eV;  [M+H]+
Name: Serpentine
Class: NA
Formula: C21H20N2O3
Exact mass: 348.1474
SMILES: CC1(C2(CN3C=CC4=C5C=CC=CC5=NC4=C3CC2(C(=CO1)C(=O)OC)[H])[H])[H]
InChI: InChI=1S/C21H20N2O3/c1-12-16-10-23-8-7-14-13-5-3-4-6-18(13)22-20(14)19(23)9-15(16)17(11-26-12)21(24)25-2/h3-8,11-12,15-16H,9-10H2,1-2H3
Instrument: Synapt (HDMS 1st gen)
Instrument type: ESI-QTOF
Ms type: MS2
Ion mode: POSITIVE
Ionization: ESI
Collision energy: 30 eV
Column name: Acquity CSHC18
Retention time: 13.950 min
Base peak: 349.1546
Precursor m/z: 349.1546
Precursor type: [M+H]+
Precursor intensity: 17002.4
m/z	relative intensity
206.0848	4
234.0787	8
235.0864	14
247.0894	5
261.0653	12
263.078	66
264.0869	15
277.1	4
289.1359	7
317.1247	115
318.1323	35
319.1371	6
349.1572	999
