Mass spectrum: Mannitol; LC-ESI-ITFT; MS2; CE: 100;  [M-H]-
Name: Mannitol
Class: Organic oxygen compounds; Organooxygen compounds; Carbohydrates and carbohydrate conjugates
Formula: C6H14O6
Exact mass: 182.07904
SMILES: OC[C@@H](O)[C@@H](O)[C@H](O)[C@H](O)CO
InChI: InChI=1S/C6H14O6/c7-1-3(9)5(11)6(12)4(10)2-8/h3-12H,1-2H2/t3-,4-,5-,6-/m1/s1
Instrument: Thermo Scientific Q-Exactive Focus
Instrument type: LC-ESI-ITFT
Ms type: MS2
Ion mode: NEGATIVE
Ionization: ESI
Collision energy: 100
Column name: Acquity CSHC18
Retention time: 2.321 min
Base peak: 181.07176
Precursor m/z: 181.07176
Precursor type: [M-H]-
m/z	relative intensity
63.6114	951
73.4558	899
89.1625	954
107.1484	925
130.6977	840
143.2551	891
148.736	873
150.6223	838
159.9902	999
171.7949	822
