Mass spectrum: Daidzin; LC-ESI-QTOF; MS2; CE: 15.00;  [M-C6H10O5+H]+
Name: Daidzin
Class: NA
Formula: C21H20O9
Exact mass: 416.1107
SMILES: C1=CC(=CC=C1C2=COC3=C(C2=O)C=CC(=C3)OC4C(C(C(C(O4)CO)O)O)O)O
InChI: InChI=1S/C21H20O9/c22-8-16-18(25)19(26)20(27)21(30-16)29-12-5-6-13-15(7-12)28-9-14(17(13)24)10-1-3-11(23)4-2-10/h1-7,9,16,18-23,25-27H,8H2
Instrument: Bruker MicrOTOF-Q
Instrument type: LC-ESI-QTOF
Ms type: MS2
Ion mode: POSITIVE
Ionization: ESI
Collision energy: 15.00
Column name: Acquity CSHC18
Retention time: NA
Base peak: 255.0652
Precursor m/z: 255.0652
Precursor type: [M-C6H10O5+H]+
m/z	relative intensity
137.0209	6
171.0789	2
181.0678	4
182.0736	1
199.0757	49
200.0776	6
209.0622	2
227.0716	28
228.0787	3
237.0565	7
238.0573	2
253.046	1
255.0661	999
255.771	1
256.0696	154
257.0714	5
