Mass spectrum: Retinyl Acetate; LC-ESI-QTOF; MS2; CE: 15 / 50;  [M+H]+
Name: Retinyl Acetate
Class: Retinoids
Formula: C22H32O2
Exact mass: 328.24023
SMILES: CC(=O)OC\C=C(/C)\C=C\C=C(\C)/C=C/C1=C(C)CCCC1(C)C
InChI: InChI=1S/C22H32O2/c1-17(9-7-10-18(2)14-16-24-20(4)23)12-13-21-19(3)11-8-15-22(21,5)6/h7,9-10,12-14H,8,11,15-16H2,1-6H3/b10-7+,13-12+,17-9-,18-14+
Instrument: impact II
Instrument type: LC-ESI-QTOF
Ms type: MS2
Ion mode: POSITIVE
Ionization: ESI
Collision energy: 15 / 50
Column name: Acquity CSHC18
Retention time: 0.568 min
Base peak: 329.24740
Precursor m/z: 329.24740
Precursor type: [M+H]+
m/z	relative intensity
93.0695	109
105.0699	132
119.0857	120
145.1012	107
157.1012	111
267.2119	150
268.2185	179
269.2267	999
270.2303	228
328.2388	124
329.2477	470
330.2518	136
