Mass spectrum: neohesperidin; LC-ESI-ITFT; MS2; CE: 0.3;  [M+H]+
Name: neohesperidin
Class: flavanones
Formula: C28H34O15
Exact mass: 610.1898
SMILES: CC1C(C(C(C(O1)OC2C(C(C(OC2OC3=CC(=C4C(=O)CC(OC4=C3)C5=CC(=C(C=C5)OC)O)O)CO)O)O)O)O)O
InChI: InChI=1S/C28H34O15/c1-10-21(33)23(35)25(37)27(39-10)43-26-24(36)22(34)19(9-29)42-28(26)40-12-6-14(31)20-15(32)8-17(41-18(20)7-12)11-3-4-16(38-2)13(30)5-11/h3-7,10,17,19,21-31,33-37H,8-9H2,1-2H3
Instrument: LTQ-Orbitrap XL hybrid mass spectrometer (Thermo Scientific)
Instrument type: LC-ESI-ITFT
Ms type: MS2
Ion mode: POSITIVE
Ionization: ESI
Collision energy: 0.3
Column name: Acquity CSHC18
Retention time: 7.794 min
Base peak: 611.1987
Precursor m/z: 611.1987
Precursor type: [M+H]+
Precursor intensity: 10568070
m/z	relative intensity
160.1558	29
161.2162	56
161.2207	95
162.9866	29
175.1675	39
185.6217	29
187.6797	28
189.0313	30
196.1391	131
196.2192	38
199.7718	30
231.862	25
286.6132	128
303.0872	290
335.8749	34
345.0979	288
351.5912	33
369.0976	82
411.1085	67
413.1243	111
429.119	70
431.1345	160
447.1295	999
449.1451	581
457.1624	73
465.14	776
473.1454	86
478.5553	73
489.14	270
491.1558	125
527.1576	34
537.9205	31
539.1564	35
557.1669	184
575.177	310
593.1881	159
