Mass spectrum: Lactucin; ESI-QTOF; MS2; CE: 25V ± 15V CES;  [M+H]+
Name: Lactucin
Class: Sesquiterpene lactone
Formula: C15H16O5
Exact mass: 276.0998
SMILES: CC1=C2C(C3C(C(C1)O)C(=C)C(=O)O3)C(=CC2=O)CO
InChI: InChI=1S/C15H16O5/c1-6-3-9(17)12-7(2)15(19)20-14(12)13-8(5-16)4-10(18)11(6)13/h4,9,12-14,16-17H,2-3,5H2,1H3
Instrument: TripleToF 5600, Sciex
Instrument type: ESI-QTOF
Ms type: MS2
Ion mode: POSITIVE
Ionization: ESI
Collision energy: 25V ± 15V CES
Column name: Acquity CSHC18
Retention time: 4.938 min
Base peak: 277.1113
Precursor m/z: 277.1113
Precursor type: [M+H]+
Precursor intensity: 160465.9
m/z	relative intensity
79.0462	8
81.029	15
85.0644	23
109.0263	22
117.0688	35
119.0814	87
128.061	38
129.0679	95
141.0715	72
142.0726	142
143.0857	158
145.0666	96
146.0732	16
147.0782	170
151.0822	55
152.0608	85
154.0781	65
155.0838	98
157.0626	365
157.0998	365
158.1046	83
159.0807	288
160.0811	58
161.0579	84
161.0955	85
163.0725	56
165.0724	106
166.0861	42
167.0809	357
169.0667	119
169.096	119
170.0722	167
171.0808	220
173.0957	61
175.0719	278
181.0774	26
183.0757	186
184.0914	98
185.0945	810
186.0657	166
186.0985	167
187.0684	203
189.0605	107
190.0693	17
191.112	14
194.4736	9
195.0825	359
197.081	57
198.0692	91
199.0718	121
201.0486	55
203.1076	104
211.0812	35
213.0877	999
214.0884	205
229.0843	64
231.0607	246
231.0972	243
241.0921	532
242.0971	110
247.109	15
259.0947	365
260.0978	73
276.2323	50
277.1058	421
278.1125	114
279.0998	44
