Mass spectrum: 5-Hydroxyindole-2-carboxylic acid; LC-ESI-QTOF; MS2; CE: 15;  [M-H]-
Name: 5-Hydroxyindole-2-carboxylic acid
Class: NA
Formula: C9H7NO3
Exact mass: 177.0426
SMILES: C1=CC2=C(C=C1O)C=C(N2)C(=O)O
InChI: InChI=1S/C9H7NO3/c11-6-1-2-7-5(3-6)4-8(10-7)9(12)13/h1-4,10-11H,(H,12,13)
Instrument: Bruker MicrOTOF-Q
Instrument type: LC-ESI-QTOF
Ms type: MS2
Ion mode: NEGATIVE
Ionization: ESI
Collision energy: 15
Column name: Acquity CSHC18
Retention time: NA
Base peak: 176.0353
Precursor m/z: 176.0353
Precursor type: [M-H]-
m/z	relative intensity
104.0499	35
105.0516	6
130.5363	7
131.0363	880
131.2798	3
131.6891	8
132.0442	999
133.0518	65
