Mass spectrum: Nicotianoside Ia; LC-ESI-QTOF; MS2; CE: 30eV;  [M+NH4]+
Name: Nicotianoside Ia
Class: Diterpene
Formula: C41H66O19
Exact mass: 862.4198
SMILES: O=C(O)CC(=O)OC[C@H]1O[C@@H](OCC(/C)=C\CCC(\C)=C\CCC(\C)=C\CC[C@](C)(O[C@@H]2O[C@H](CO)[C@@H](O[C@@H]3O[C@@H](C)[C@H](O)[C@@H](O)[C@H]3O)[C@H](O)[C@H]2O)C=C)[C@H](O)[C@@H](O)[C@@H]1O
InChI: InChI=1S/C41H66O19/c1-7-41(6,60-40-36(53)33(50)37(25(18-42)57-40)59-39-35(52)31(48)29(46)24(5)56-39)16-10-15-22(3)12-8-11-21(2)13-9-14-23(4)19-55-38-34(51)32(49)30(47)26(58-38)20-54-28(45)17-27(43)44/h7,11,14-15,24-26,29-40,42,46-53H,1,8-10,12-13,16-20H2,2-6H3,(H,43,44)/b21-11+,22-15+,23-14-/t24-,25+,26+,29-,30+,31+,32-,33+,34+,35+,36+,37+,38+,39-,40-,41+/m0/s1
Instrument: Impact II qTOF
Instrument type: LC-ESI-QTOF
Ms type: MS2
Ion mode: POSITIVE
Ionization: ESI
Collision energy: 30eV
Column name: Direct injection MS/MS
Retention time: 0.9 min
Base peak: 880.4570
Precursor m/z: 880.4570
Precursor type: [M+NH4]+
m/z	relative intensity
129.0552	20
135.1164	28
149.1323	63
159.1166	23
163.148	78
175.148	53
177.1635	62
189.1633	43
201.163	44
203.1788	48
215.1792	121
216.1829	18
229.1943	18
249.0613	174
255.0872	33
257.2258	24
269.2256	29
271.2424	999
272.2455	182
273.096	35
289.2527	103
290.2558	21
309.1186	101
315.1076	28
341.0865	38
359.0973	110
360.1015	18
377.1077	67
381.2784	27
393.1041	14
395.1183	172
396.1214	28
399.2891	58
400.293	14
411.1143	34
417.2992	190
418.3018	48
519.2963	23
537.3048	26
554.3312	25
880.4553	37
