Mass spectrum: H-Leu-Tyr-OH; LC-ESI-QTOF; MS2; CE: 15.00;  [M-H]-
Name: H-Leu-Tyr-OH
Class: NA
Formula: C15H22N2O4
Exact mass: 294.1580
SMILES: CC(C)CC(C(=O)NC(CC1=CC=C(C=C1)O)C(=O)O)N
InChI: InChI=1S/C15H22N2O4/c1-9(2)7-12(16)14(19)17-13(15(20)21)8-10-3-5-11(18)6-4-10/h3-6,9,12-13,18H,7-8,16H2,1-2H3,(H,17,19)(H,20,21)
Instrument: Bruker MicrOTOF-Q
Instrument type: LC-ESI-QTOF
Ms type: MS2
Ion mode: NEGATIVE
Ionization: ESI
Collision energy: 15.00
Column name: Acquity CSHC18
Retention time: NA
Base peak: 293.1507
Precursor m/z: 293.1507
Precursor type: [M-H]-
m/z	relative intensity
119.05	267
129.1	999
130.11	105
180.07	176
249.16	556
250.16	111
293.15	542
294.15	125
