Mass spectrum: 20:0(2R-OH) Ceramide; ESI-TOF; MS2; CE: 6.0000000;  [M+H]+
Name: 20:0(2R-OH) Ceramide
Class: NA
Formula: C38H75NO4
Exact mass: 609.56961
SMILES: [H]OC([H])([H])C([H])(N([H])C(=O)C([H])(O[H])C([H])([H])C([H])([H])C([H])([H])C([H])([H])C([H])([H])C([H])([H])C([H])([H])C([H])([H])C([H])([H])C([H])([H])C([H])([H])C([H])([H])C([H])([H])C([H])([H])C([H])([H])C([H])([H])C([H])([H])C([H])([H])[H])C([H])(O[H])C([H])=C([H])C([H])([H])C([H])([H])C([H])([H])C([H])([H])C([H])([H])C([H])([H])C([H])([H])C([H])([H])C([H])([H])C([H])([H])C([H])([H])C([H])([H])C([H])([H])[H]
InChI: InChI=1S/C38H75NO4/c1-3-5-7-9-11-13-15-17-18-19-21-23-25-27-29-31-33-37(42)38(43)39-35(34-40)36(41)32-30-28-26-24-22-20-16-14-12-10-8-6-4-2/h30,32,35-37,40-42H,3-29,31,33-34H2,1-2H3,(H,39,43)
Instrument: waters xevo g2 TOF
Instrument type: ESI-TOF
Ms type: MS2
Ion mode: POSITIVE
Ionization: ESI
Collision energy: 6.0000000
Column name: Acquity CSHC18
Retention time: 11.529 min
Base peak: 610.57761
Precursor m/z: 610.57761
Precursor type: [M+H]+
m/z	relative intensity
101.9648	20
125.9862	33
127.9798	48
129.9798	16
300.755	15
317.7595	20
325.2677	64
380.2087	24
537.3964	13
538.3966	13
574.5604	13
578.5514	28
592.5676	999
593.5713	425
594.5749	31
610.5799	434
611.5792	185
