Mass spectrum: N-METHYLASPARTATE; LC-ESI-QTOF; MS2; CE: 20;  [M-H]-
Name: N-METHYLASPARTATE
Class: NA
Formula: C5H9NO4
Exact mass: 147.05316
SMILES: CN[C@H](CC(O)=O)C(O)=O
InChI: InChI=1S/C5H9NO4/c1-6-3(5(9)10)2-4(7)8/h3,6H,2H2,1H3,(H,7,8)(H,9,10)/t3-/m1/s1
Instrument: Agilent 6530Â Q-TOF LC/MS
Instrument type: LC-ESI-QTOF
Ms type: MS2
Ion mode: NEGATIVE
Ionization: ESI
Collision energy: 20
Column name: NA
Retention time: 0.200 min
Base peak: 146.04902
Precursor m/z: 146.04902
Precursor type: [M-H]-
Precursor intensity: 165
m/z	relative intensity
41.0063	133
42.0001	150
56.0554	163
59.0196	220
71.0296	265
86.0235	354
102.0752	678
115.0192	801
146.0386	999
