Mass spectrum: H-Val-Leu-OH; LC-ESI-QTOF; MS2; CE: 15.00;  [M-H]-
Name: H-Val-Leu-OH
Class: NA
Formula: C11H22N2O3
Exact mass: 230.1630
SMILES: CC(C)CC(C(=O)O)NC(=O)C(C(C)C)N
InChI: InChI=1S/C11H22N2O3/c1-6(2)5-8(11(15)16)13-10(14)9(12)7(3)4/h6-9H,5,12H2,1-4H3,(H,13,14)(H,15,16)
Instrument: Bruker MicrOTOF-Q
Instrument type: LC-ESI-QTOF
Ms type: MS2
Ion mode: NEGATIVE
Ionization: ESI
Collision energy: 15.00
Column name: Acquity CSHC18
Retention time: NA
Base peak: 229.1558
Precursor m/z: 229.1558
Precursor type: [M-H]-
m/z	relative intensity
45.34	149
47.54	210
52.26	243
56.72	127
70.67	144
97.04	199
97.16	121
100.84	116
102.32	171
115.09	221
116.67	110
122.27	188
130.09	718
132.24	116
137.94	132
173.46	188
185.17	999
186.18	166
211.67	127
219.93	166
229.16	938
229.27	110
230.16	381
231.88	116
294.6	110
353.15	166
364.96	232
373.15	138
479.35	160
484.02	177
559.56	204
567.29	199
583.13	149
680.53	144
703.76	193
836.62	160
839.76	221
840.96	166
908.16	121
968.9	149
