Mass spectrum: Feruloyl quinic acid; LC-ESI-ITFT; MS2; CE: 35eV;  [M+H]+
Name: Feruloyl quinic acid
Class: Hydroxycinnamic ester
Formula: C17H20O9
Exact mass: 368.1107
SMILES: COC1=C(C=CC(=C1)C=CC(=O)OC2CC(CC(C2O)O)(C(=O)O)O)O
InChI: InChI=1S/C17H20O9/c1-25-12-6-9(2-4-10(12)18)3-5-14(20)26-13-8-17(24,16(22)23)7-11(19)15(13)21/h2-6,11,13,15,18-19,21,24H,7-8H2,1H3,(H,22,23)
Instrument: LTQ Orbitrap XL, Thermo Scientfic; Dionex Ultimate 300
Instrument type: LC-ESI-ITFT
Ms type: MS2
Ion mode: POSITIVE
Ionization: ESI
Collision energy: 35eV
Column name: Lichrospher C18 Column 250*4 5um, Interchim
Retention time: 35.22 min
Base peak: 369.1176
Precursor m/z: 369.1176
Precursor type: [M+H]+
m/z	relative intensity
116.9347	13
144.8908	106
146.9815	1
149.0456	1
174.999	4
176.8871	999
206.9925	29
