Mass spectrum: Afzelin; LC-ESI-QFT; MS2; CE: 15,30,45 (NCE);  [2M+Na]+
Name: Afzelin
Class: NA
Formula: C21H20O10
Exact mass: 432.1056
SMILES: CC1OC(OC2=C(OC3=CC(O)=CC(O)=C3C2=O)C2=CC=C(O)C=C2)C(O)C(O)C1O
InChI: InChI=1S/C21H20O10/c1-8-15(25)17(27)18(28)21(29-8)31-20-16(26)14-12(24)6-11(23)7-13(14)30-19(20)9-2-4-10(22)5-3-9/h2-8,15,17-18,21-25,27-28H,1H3
Instrument: QE Focus, Thermo Scientfic; UPLC I-Class, Waters
Instrument type: LC-ESI-QFT
Ms type: MS2
Ion mode: POSITIVE
Ionization: ESI
Collision energy: 15,30,45 (NCE)
Column name: Acquity CSHC18
Retention time: 1.829 min
Base peak: 887.1999
Precursor m/z: 887.1999
Precursor type: [2M+Na]+
Precursor intensity: 6439669
m/z	relative intensity
71.0498	11
75.0288	2
81.1309	2
82.639	2
85.0288	14
169.0472	78
231.0279	2
283.8692	2
308.0301	23
309.0367	396
455.0944	999
550.0216	2
595.0717	9
732.1423	3
