Mass spectrum: Myricetin-3-O-(6''-O-galloyl)-β-D-galactopyranoside; LC-ESI-ITFT; MS2; CE: 0.3;  [M+H]+
Name: Myricetin-3-O-(6''-O-galloyl)-β-D-galactopyranoside
Class: flavonol glycosides
Formula: C28H24O17
Exact mass: 632.1013
SMILES: C1=C(C=C(C(=C1O)O)O)C2=C(C(=O)C3=C(C=C(C=C3O2)O)O)OC4C(C(C(C(O4)COC(=O)C5=CC(=C(C(=C5)O)O)O)O)O)O
InChI: InChI=1S/C28H24O17/c29-10-5-11(30)18-16(6-10)43-25(8-1-12(31)19(35)13(32)2-8)26(22(18)38)45-28-24(40)23(39)21(37)17(44-28)7-42-27(41)9-3-14(33)20(36)15(34)4-9/h1-6,17,21,23-24,28-37,39-40H,7H2
Instrument: LTQ-Orbitrap XL hybrid mass spectrometer (Thermo Scientific)
Instrument type: LC-ESI-ITFT
Ms type: MS2
Ion mode: POSITIVE
Ionization: ESI
Collision energy: 0.3
Column name: Acquity CSHC18
Retention time: 4.289 min
Base peak: 633.1064
Precursor m/z: 633.1064
Precursor type: [M+H]+
Precursor intensity: 4308782
m/z	relative intensity
161.7168	4
166.931	19
195.0281	11
210.5977	5
229.5892	4
264.4362	5
271.8774	4
287.1063	10
292.4863	4
297.0598	59
315.0703	618
319.044	999
324.0895	12
343.0441	26
361.0547	522
379.9056	4
385.0536	65
397.0567	9
409.0544	19
410.4196	5
415.0651	17
417.1279	4
427.0646	225
445.0742	15
463.0858	372
471.0519	7
481.0961	274
495.3594	4
512.5695	5
517.4439	5
545.6332	5
579.0773	20
597.0877	57
615.0964	906
616.0994	15
616.9457	4
