Mass spectrum: Agmatine; LC-ESI-ITFT; MS2; CE: 20;  [M+H]+
Name: Agmatine
Class: Organic nitrogen compounds; Organonitrogen compounds; Guanidines
Formula: C5H14N4
Exact mass: 130.12185
SMILES: NCCCCNC(N)=N
InChI: InChI=1S/C5H14N4/c6-3-1-2-4-9-5(7)8/h1-4,6H2,(H4,7,8,9)
Instrument: Thermo Scientific Q-Exactive Focus
Instrument type: LC-ESI-ITFT
Ms type: MS2
Ion mode: POSITIVE
Ionization: ESI
Collision energy: 20
Column name: Acquity CSHC18
Retention time: 0.483 min
Base peak: 131.12912
Precursor m/z: 131.12912
Precursor type: [M+H]+
m/z	relative intensity
55.0296	13
55.0548	9
60.0561	193
72.0812	999
87.0043	4
97.0762	68
97.0777	4
113.9638	6
114.1027	31
144.637	4
