Mass spectrum: 15(R)-Prostaglandin F2-alpha; ESI-TOF; MS2; CE: 6.0000000;  [M+H]+
Name: 15(R)-Prostaglandin F2-alpha
Class: NA
Formula: C20H34O5
Exact mass: 354.24062
SMILES: CCCCC[C@@H](/C=C/[C@H]1[C@@H](C[C@@H]([C@@H]1C/C=C\CCCC(=O)O)O)O)O
InChI: InChI=1S/C20H34O5/c1-2-3-6-9-15(21)12-13-17-16(18(22)14-19(17)23)10-7-4-5-8-11-20(24)25/h4,7,12-13,15-19,21-23H,2-3,5-6,8-11,14H2,1H3,(H,24,25)/b7-4-,13-12+/t15-,16+,17+,18-,19+/m0/s1
Instrument: waters xevo g2 TOF
Instrument type: ESI-TOF
Ms type: MS2
Ion mode: POSITIVE
Ionization: ESI
Collision energy: 6.0000000
Column name: Acquity CSHC18
Retention time: 3.570 min
Base peak: 355.24862
Precursor m/z: 355.24862
Precursor type: [M+H]+
m/z	relative intensity
131.086	6
135.0982	3
157.1021	3
163.1125	3
167.0722	31
181.1264	5
187.1105	13
203.1793	22
205.159	13
217.1583	8
229.1964	6
231.1339	4
241.1948	12
247.2042	14
255.2098	13
257.191	94
258.1944	12
263.2001	69
264.2071	12
265.2048	293
266.2188	45
275.2	118
276.2005	15
277.214	12
283.2053	149
284.2085	30
285.2146	5
293.2109	30
301.2162	999
302.2213	224
303.2296	55
304.2326	6
305.2101	3
317.2096	36
318.1262	36
319.2269	863
320.2303	174
321.2367	18
335.2227	45
337.2362	154
338.239	26
346.132	3
347.1775	56
348.1357	14
356.2058	13
356.7113	5
