Mass spectrum: Chlorogenic acid; LC-ESI-QTOF; MS2; CE: 18.98;  [M-H]-
Name: Chlorogenic acid
Class: NA
Formula: C16H18O9
Exact mass: 354.0951
SMILES: C1C(C(C(CC1(C(=O)O)O)OC(=O)C=CC2=CC(=C(C=C2)O)O)O)O
InChI: InChI=1S/C16H18O9/c17-9-3-1-8(5-10(9)18)2-4-13(20)25-12-7-16(24,15(22)23)6-11(19)14(12)21/h1-5,11-12,14,17-19,21,24H,6-7H2,(H,22,23)
Instrument: Bruker MicrOTOF-Q
Instrument type: LC-ESI-QTOF
Ms type: MS2
Ion mode: NEGATIVE
Ionization: ESI
Collision energy: 18.98
Column name: Acquity CSHC18
Retention time: NA
Base peak: 353.0878
Precursor m/z: 353.0878
Precursor type: [M-H]-
m/z	relative intensity
78.95	1
87.57	1
93.04	1
100.13	1
109.03	1
111.05	1
114.45	1
114.66	1
127.04	4
133.03	4
133.09	1
134.05	1
135.05	4
143.03	1
148.65	1
153.03	1
155.04	1
159.11	1
161.02	9
162.03	1
171.03	1
173.05	6
177.99	1
179.04	5
179.64	1
190.03	1
190.11	1
190.18	2
190.33	5
190.41	3
190.49	2
190.58	3
190.64	1
190.71	1
190.75	2
191.06	999
191.27	3
191.3	3
191.36	3
191.42	3
191.5	2
191.57	2
191.69	2
191.75	1
191.85	1
191.91	2
192.06	90
192.28	1
192.32	1
192.38	1
192.44	1
192.52	1
192.86	1
193.06	11
215.06	1
