Mass spectrum: THYROTROPIN RELEASING HORMONE; LC-ESI-QTOF; MS2; CE: 40;  [M-H]-
Name: THYROTROPIN RELEASING HORMONE
Class: NA
Formula: C16H22N6O4
Exact mass: 362.17025
SMILES: [H][C@@](CC1=CN=CN1)(NC(=O)[C@]1([H])CCC(=O)N1)C(=O)N1CCC[C@@]1([H])C(N)=O
InChI: InChI=1S/C16H22N6O4/c17-14(24)12-2-1-5-22(12)16(26)11(6-9-7-18-8-19-9)21-15(25)10-3-4-13(23)20-10/h7-8,10-12H,1-6H2,(H2,17,24)(H,18,19)(H,20,23)(H,21,25)/t10-,11-,12-/m0/s1
Instrument: Agilent 6530Â Q-TOF LC/MS
Instrument type: LC-ESI-QTOF
Ms type: MS2
Ion mode: NEGATIVE
Ionization: ESI
Collision energy: 40
Column name: NA
Retention time: 0.200 min
Base peak: 361.16386
Precursor m/z: 361.16386
Precursor type: [M-H]-
Precursor intensity: 151
m/z	relative intensity
42.0081	101
58.0332	102
67.0404	104
80.0475	107
81.0459	109
82.0428	112
84.0126	113
91.0283	115
96.0471	118
107.0545	118
108.0566	122
109.0484	125
110.0627	130
113.0852	141
118.0382	156
123.0592	172
124.0568	172
125.0584	172
127.0479	194
132.0638	199
135.0526	202
139.0402	261
149.0353	262
151.0442	272
152.0926	322
153.0666	417
160.0875	438
166.0592	472
167.0657	474
201.0875	715
263.1257	999
