Mass spectrum: Carnosine; LC-ESI-ITFT; MS2; CE: 10;  [M+H]+
Name: Carnosine
Class: Organic acids and derivatives; Peptidomimetics; Hybrid peptides
Formula: C9H14N4O3
Exact mass: 226.10659
SMILES: NCCC(=O)N[C@@H](CC1=CN=CN1)C(O)=O
InChI: InChI=1S/C9H14N4O3/c10-2-1-8(14)13-7(9(15)16)3-6-4-11-5-12-6/h4-5,7H,1-3,10H2,(H,11,12)(H,13,14)(H,15,16)/t7-/m0/s1
Instrument: Thermo Scientific Q-Exactive Focus
Instrument type: LC-ESI-ITFT
Ms type: MS2
Ion mode: POSITIVE
Ionization: ESI
Collision energy: 10
Column name: Acquity CSHC18
Retention time: 0.348 min
Base peak: 227.11388
Precursor m/z: 227.11388
Precursor type: [M+H]+
m/z	relative intensity
110.0716	647
156.0769	799
164.0819	92
180.0768	200
181.1084	275
192.0767	73
209.1033	118
210.0874	999
227.1139	794
227.1754	264
