Mass spectrum: 6-beta-Prostaglandin I1; ESI-TOF; MS2; CE: 0.6458333;  [M+H]+
Name: 6-beta-Prostaglandin I1
Class: NA
Formula: C20H34O5
Exact mass: 354.24062
SMILES: CCCCC[C@H](O)/C=C/[C@H]1[C@H](O)C[C@H]2[C@@H]1C[C@@](CCCCC(O)=O)([H])O2
InChI: InChI=1S/C20H34O5/c1-2-3-4-7-14(21)10-11-16-17-12-15(8-5-6-9-20(23)24)25-19(17)13-18(16)22/h10-11,14-19,21-22H,2-9,12-13H2,1H3,(H,23,24)/b11-10+/t14-,15-,16+,17+,18+,19-/m0/s1
Instrument: waters xevo g2 TOF
Instrument type: ESI-TOF
Ms type: MS2
Ion mode: POSITIVE
Ionization: ESI
Collision energy: 0.6458333
Column name: Acquity CSHC18
Retention time: 3.710 min
Base peak: 355.24862
Precursor m/z: 355.24862
Precursor type: [M+H]+
m/z	relative intensity
67.0536	35
69.0699	20
79.0542	35
81.0709	64
91.0552	191
99.0813	45
101.0609	580
105.0701	176
106.0759	11
107.0879	60
109.0667	15
111.0453	999
112.0501	30
117.0715	88
119.0869	204
121.0658	38
129.057	278
131.0866	133
133.1024	72
135.1165	26
141.0706	68
143.0883	81
145.1024	56
147.0809	23
155.0832	11
157.1025	92
159.1183	42
161.1164	10
165.0249	12
169.0599	55
173.1314	20
175.1497	186
176.1535	22
185.1337	66
187.1129	32
188.1065	5
189.1649	8
191.1798	47
195.1102	12
199.1144	13
201.1286	22
203.1431	16
205.1233	15
207.1751	22
209.1231	10
213.1269	12
217.1573	49
221.1534	5
275.1966	10
283.2042	35
301.2168	78
302.2206	18
303.2282	12
318.1284	44
319.2272	56
337.2393	83
347.1321	31
357.1753	86
