Mass spectrum: Adenosine; LC-ESI-QTOF; MS2; CE: 15 / 50;  [M+H]+
Name: Adenosine
Class: NA
Formula: C10H13N5O4
Exact mass: 267.09675
SMILES: C1=NC(=C2C(=N1)N(C=N2)C3C(C(C(O3)CO)O)O)N
InChI: InChI=1S/C10H13N5O4/c11-8-5-9(13-2-12-8)15(3-14-5)10-7(18)6(17)4(1-16)19-10/h2-4,6-7,10,16-18H,1H2,(H2,11,12,13)
Instrument: impact II
Instrument type: LC-ESI-QTOF
Ms type: MS2
Ion mode: POSITIVE
Ionization: ESI
Collision energy: 15 / 50
Column name: Acquity CSHC18
Retention time: 0.610 min
Base peak: 268.10390
Precursor m/z: 268.10390
Precursor type: [M+H]+
m/z	relative intensity
119.0351	241
136.0618	999
136.0762	132
268.1039	466
