Mass spectrum: Phenol Red; LC-ESI-QTOF; MS2; CE: 30;  [M-H]-
Name: Phenol Red
Class: NA
Formula: C19H14O5S
Exact mass: 354.0562
SMILES: C1=CC=C2C(=C1)C(OS2(=O)=O)(C3=CC=C(C=C3)O)C4=CC=C(C=C4)O
InChI: InChI=1S/C19H14O5S/c20-15-9-5-13(6-10-15)19(14-7-11-16(21)12-8-14)17-3-1-2-4-18(17)25(22,23)24-19/h1-12,20-21H
Instrument: impact II
Instrument type: LC-ESI-QTOF
Ms type: MS2
Ion mode: NEGATIVE
Ionization: ESI
Collision energy: 30
Column name: Acquity CSHC18
Retention time: 1.684 min
Base peak: 353.0437
Precursor m/z: 353.0437
Precursor type: [M-H]-
m/z	relative intensity
79.958	411
80.9657	127
93.035	803
195.0437	777
196.0479	134
271.0732	147
272.0807	160
273.0884	362
274.092	101
289.0828	215
353.0436	999
354.0472	340
