Mass spectrum: ALLOTHREONINE; LC-ESI-QTOF; MS2; CE: 20;  [M+H]+
Name: ALLOTHREONINE
Class: NA
Formula: C4H9NO3
Exact mass: 119.05824
SMILES: C[C@H](O)[C@H](N)C(O)=O
InChI: InChI=1S/C4H9NO3/c1-2(6)3(5)4(7)8/h2-3,6H,5H2,1H3,(H,7,8)/t2-,3-/m0/s1
Instrument: Agilent 6530Â Q-TOF LC/MS
Instrument type: LC-ESI-QTOF
Ms type: MS2
Ion mode: POSITIVE
Ionization: ESI
Collision energy: 20
Column name: NA
Retention time: 0.200 min
Base peak: 120.06830
Precursor m/z: 120.06830
Precursor type: [M+H]+
Precursor intensity: 43.5
m/z	relative intensity
40.0225	103
43.0376	125
52.0201	141
56.0532	172
66.0299	173
67.0537	205
77.0193	691
94.0603	809
121.069	999
