Mass spectrum: Nicotianoside II; LC-ESI-QTOF; MS2; CE: 50eV;  [M+NH4]+
Name: Nicotianoside II
Class: NA
Formula: C44H68O22
Exact mass: 948.4202
SMILES: CC1C(C(C(C(O1)OC2C(OC(C(C2O)O)OC(C)(CCC=C(C)CCC=C(C)CCC=C(C)COC3C(C(C(C(O3)COC(=O)CC(=O)O)O)O)O)C=C)COC(=O)CC(=O)O)O)O)O
InChI: InChI=1S/C44H68O22/c1-7-44(6,66-43-39(58)36(55)40(27(64-43)21-60-31(50)18-29(47)48)65-42-38(57)34(53)32(51)25(5)62-42)16-10-15-23(3)12-8-11-22(2)13-9-14-24(4)19-61-41-37(56)35(54)33(52)26(63-41)20-59-30(49)17-28(45)46/h7,11,14-15,25-27,32-43,51-58H,1,8-10,12-13,16-21H2,2-6H3,(H,45,46)(H,47,48)
Instrument: Impact II qTOF
Instrument type: LC-ESI-QTOF
Ms type: MS2
Ion mode: POSITIVE
Ionization: ESI
Collision energy: 50eV
Column name: Acquity CSH C18 column (particle size 1.7 μm, column length 2.1 × 50 mm) (Waters)
Retention time: 7.34 min
Base peak: 966.4568
Precursor m/z: 966.4568
Precursor type: [M+NH4]+
m/z	relative intensity
127.0394	170
135.1169	148
149.1326	259
159.0293	161
159.1163	172
161.1321	274
163.1478	290
175.1476	206
189.1632	168
203.1789	230
213.0401	214
215.1795	455
231.0506	401
237.0766	125
249.061	200
271.2419	999
272.2449	189
273.0618	115
