Mass spectrum: Hydroxykynurenine; LC-ESI-ITFT; MS2; CE: 60;  [M+H]+
Name: Hydroxykynurenine
Class: Organic oxygen compounds; Organooxygen compounds; Carbonyl compounds
Formula: C10H12N2O4
Exact mass: 224.07971
SMILES: NC(CC(=O)C1=C(N)C(O)=CC=C1)C(O)=O
InChI: InChI=1S/C10H12N2O4/c11-6(10(15)16)4-8(14)5-2-1-3-7(13)9(5)12/h1-3,6,13H,4,11-12H2,(H,15,16)
Instrument: Thermo Scientific Q-Exactive Focus
Instrument type: LC-ESI-ITFT
Ms type: MS2
Ion mode: POSITIVE
Ionization: ESI
Collision energy: 60
Column name: Acquity CSHC18
Retention time: 1.754 min
Base peak: 225.08698
Precursor m/z: 225.08698
Precursor type: [M+H]+
m/z	relative intensity
53.0028	182
53.0392	380
63.0235	190
65.0391	999
79.0546	123
80.0499	964
89.0389	799
92.0498	268
95.0494	153
107.0494	118
