Mass spectrum: (-)-epigallocatechin gallate; LC-ESI-ITFT; MS2; CE: 0.3;  [M-H]-
Name: (-)-epigallocatechin gallate
Class: flavanols
Formula: C22H18O11
Exact mass: 458.0849
SMILES: C1C(C(OC2=CC(=CC(=C21)O)O)C3=CC(=C(C(=C3)O)O)O)OC(=O)C4=CC(=C(C(=C4)O)O)O
InChI: InChI=1S/C22H18O11/c23-10-5-12(24)11-7-18(33-22(31)9-3-15(27)20(30)16(28)4-9)21(32-17(11)6-10)8-1-13(25)19(29)14(26)2-8/h1-6,18,21,23-30H,7H2
Instrument: LTQ-Orbitrap XL hybrid mass spectrometer (Thermo Scientific)
Instrument type: LC-ESI-ITFT
Ms type: MS2
Ion mode: NEGATIVE
Ionization: ESI
Collision energy: 0.3
Column name: Acquity CSHC18
Retention time: 6.288 min
Base peak: 457.0770
Precursor m/z: 457.0770
Precursor type: [M-H]-
Precursor intensity: 14947990
m/z	relative intensity
115.6402	3
115.6413	3
117.4953	3
119.7388	4
123.5811	4
125.0248	6
126.0382	3
141.3054	3
150.7202	3
161.0246	9
167.118	4
167.746	7
168.0625	6
168.3786	6
169.0082	5
169.0143	999
169.0224	3
169.0236	4
169.6532	8
169.9741	5
170.0176	50
191.17	3
193.0142	109
194.0177	6
194.4815	4
194.4863	4
194.5006	3
194.5163	4
194.5919	3
196.0793	5
196.1544	4
196.1588	12
196.2394	3
205.0141	8
206.147	3
210.6475	3
269.0451	95
270.0485	6
275.0556	28
287.0556	123
287.2415	23
287.2486	8
288.0586	10
305.066	408
306.0694	37
319.0451	43
326.1309	3
328.4411	3
331.0452	668
332.0484	67
333.6798	4
413.0872	11
439.0669	7
457.0769	18
