Mass spectrum: Chrysin; LC-ESI-QTOF; MS2; CE: 50eV;  [M+H]+
Name: Chrysin
Class: Falvone
Formula: C15H10O4
Exact mass: 254.0579
SMILES: C1=CC=C(C=C1)C2=CC(=O)C3=C(C=C(C=C3O2)O)O
InChI: InChI=1S/C15H10O4/c16-10-6-11(17)15-12(18)8-13(19-14(15)7-10)9-4-2-1-3-5-9/h1-8,16-17H
Instrument: TIMS-TOF Pro, Bruker Daltonik; Elute UHPLC System, Bruker Daltonik
Instrument type: LC-ESI-QTOF
Ms type: MS2
Ion mode: POSITIVE
Ionization: ESI
Collision energy: 50eV
Column name: Acquity CSHC18
Retention time: 8.832 min
Base peak: 255.0622
Precursor m/z: 255.0622
Precursor type: [M+H]+
Precursor intensity: 1026267
m/z	relative intensity
28.7639	2
55.0114	1
67.0182	12
68.9964	12
77.0287	1
101.0392	1
103.0539	18
104.0581	2
122.4595	1
127.0545	3
129.0311	5
131.083	2
141.0625	2
152.059	4
153.0172	29
154.0158	2
165.0664	2
171.249	1
187.0276	1
209.043	1
211.039	2
254.7861	2
255.0242	6
255.0647	999
255.5185	9
