Mass spectrum: Acetylglycine; ESI-TOF; MS2; CE: 0.6458333;  [M+H]+
Name: Acetylglycine
Class: NA
Formula: C4H7NO3
Exact mass: 117.04259
SMILES: CC(=O)NCC(O)=O
InChI: InChI=1S/C4H7NO3/c1-3(6)5-2-4(7)8/h2H2,1H3,(H,5,6)(H,7,8)
Instrument: waters xevo g2 TOF
Instrument type: ESI-TOF
Ms type: MS2
Ion mode: POSITIVE
Ionization: ESI
Collision energy: 0.6458333
Column name: Acquity CSHC18
Retention time: 0.630 min
Base peak: 118.05059
Precursor m/z: 118.05059
Precursor type: [M+H]+
m/z	relative intensity
85.9691	14
91.9564	3
94.9663	7
98.9768	60
112.0076	821
113.9868	33
114.971	134
115.98	87
116.9872	57
125.987	63
126.9726	223
127.9798	796
128.9873	105
130.0688	47
132.0268	40
141.0119	30
143.976	11
144.9827	228
145.9905	90
155.9975	999
157.0053	406
158.0133	155
159.003	19
169.0445	18
171.0715	253
172.0304	91
174.0074	17
186.0094	419
186.9752	17
196.0304	40
200.0261	93
201.0033	133
216.0197	57
265.9967	32
273.0396	76
301.9292	23
315.9586	7
326.9588	34
332.9759	66
342.9317	98
459.9746	32
