Mass spectrum: 1,2-dilignoceroyl-sn-glycero-3-phosphocholine; ESI-TOF; MS2; CE: 6.0000000;  [M+H]+
Name: 1,2-dilignoceroyl-sn-glycero-3-phosphocholine
Class: NA
Formula: C56H112NO8P
Exact mass: 957.81256
SMILES: [H]C([H])([H])C([H])([H])C([H])([H])C([H])([H])C([H])([H])C([H])([H])C([H])([H])C([H])([H])C([H])([H])C([H])([H])C([H])([H])C([H])([H])C([H])([H])C([H])([H])C([H])([H])C([H])([H])C([H])([H])C([H])([H])C([H])([H])C([H])([H])C([H])([H])C([H])([H])C([H])([H])C(=O)OC([H])([H])C([H])(OC(=O)C([H])([H])C([H])([H])C([H])([H])C([H])([H])C([H])([H])C([H])([H])C([H])([H])C([H])([H])C([H])([H])C([H])([H])C([H])([H])C([H])([H])C([H])([H])C([H])([H])C([H])([H])C([H])([H])C([H])([H])C([H])([H])C([H])([H])C([H])([H])C([H])([H])C([H])([H])C([H])([H])[H])C([H])([H])OP(=O)([O-])OC([H])([H])C([H])([H])[N+](C([H])([H])[H])(C([H])([H])[H])C([H])([H])[H]
InChI: InChI=1S/C56H112NO8P/c1-6-8-10-12-14-16-18-20-22-24-26-28-30-32-34-36-38-40-42-44-46-48-55(58)62-52-54(53-64-66(60,61)63-51-50-57(3,4)5)65-56(59)49-47-45-43-41-39-37-35-33-31-29-27-25-23-21-19-17-15-13-11-9-7-2/h54H,6-53H2,1-5H3
Instrument: waters xevo g2 TOF
Instrument type: ESI-TOF
Ms type: MS2
Ion mode: POSITIVE
Ionization: ESI
Collision energy: 6.0000000
Column name: Acquity CSHC18
Retention time: 14.570 min
Base peak: 958.82056
Precursor m/z: 958.82056
Precursor type: [M+H]+
m/z	relative intensity
84.9603	86
101.9647	49
127.9593	65
164.8721	1
164.8734	1
172.862	1
173.9607	39
184.0733	1
214.9184	1
261.9078	33
261.909	38
295.1944	1
295.196	1
407.3199	45
408.3208	1
498.8841	999
499.3882	375
499.8899	70
571.8525	76
590.4526	1
590.4548	130
590.4596	31
591.4584	1
775.754	1
776.7565	1
958.8164	826
959.8221	952
960.8272	167
961.8299	27
977.7937	128
978.2954	170
978.7969	66
979.3009	1
980.8011	884
981.8048	274
982.8085	78
983.8094	22
986.7723	30
1042.7749	51
1043.2768	1
1043.7775	55
1044.7752	1
1049.7927	25
1051.2541	19
1051.763	1
1052.261	1
1058.7537	9
1059.7441	1
