Mass spectrum: 3',5'-cyclic GMP; LC-ESI-QTOF; MS2; CE: 35;  [M-H]-
Name: 3',5'-cyclic GMP
Class: NA
Formula: C10H12N5O7P
Exact mass: 345.0474
SMILES: C1C2C(C(C(O2)N3C=NC4=C3NC(=NC4=O)N)O)OP(=O)(O1)O
InChI: InChI=1S/C10H12N5O7P/c11-10-13-7-4(8(17)14-10)12-2-15(7)9-5(16)6-3(21-9)1-20-23(18,19)22-6/h2-3,5-6,9,16H,1H2,(H,18,19)(H3,11,13,14,17)
Instrument: Bruker MicrOTOF-Q
Instrument type: LC-ESI-QTOF
Ms type: MS2
Ion mode: NEGATIVE
Ionization: ESI
Collision energy: 35
Column name: Acquity CSHC18
Retention time: NA
Base peak: 344.0391
Precursor m/z: 344.0391
Precursor type: [M-H]-
m/z	relative intensity
88.2023	70
107.0418	145
108.0203	251
109.0223	53
132.9122	48
133.014	999
134.0158	154
134.9889	46
150.0454	217
