Mass spectrum: Niacinamide; ESI-TOF; MS2; CE: 0.6458333;  [M+H]+
Name: Niacinamide
Class: NA
Formula: C6H6N2O
Exact mass: 122.04801
SMILES: NC(=O)C1=CN=CC=C1
InChI: InChI=1S/C6H6N2O/c7-6(9)5-2-1-3-8-4-5/h1-4H,(H2,7,9)
Instrument: waters xevo g2 TOF
Instrument type: ESI-TOF
Ms type: MS2
Ion mode: POSITIVE
Ionization: ESI
Collision energy: 0.6458333
Column name: Acquity CSHC18
Retention time: 0.588 min
Base peak: 123.05601
Precursor m/z: 123.05601
Precursor type: [M+H]+
m/z	relative intensity
78.0347	92
80.0504	432
81.0534	26
96.0451	81
105.0458	4
106.0297	61
113.9644	3
123.056	999
124.0588	73
149.9615	3
159.9708	2
165.9838	2
176.9734	4
177.983	2
180.9711	3
193.9775	5
255.0111	3
256.0156	1
298.0147	11
299.021	2
453.7863	1
