Mass spectrum: 7,11-dihydroxy ferruginol; ESI-QTOF; MS2; CE: -55V;  [M-H]-
Name: 7,11-dihydroxy ferruginol
Class: phenolic diterpene
Formula: C20H30O3
Exact mass: 318.2195
SMILES: CC(C)C(C(O)=C1O)=CC2=C1C3(C)C(CC2O)C(C)(C)CCC3
InChI: InChI=1S/C20H30O3/c1-11(2)12-9-13-14(21)10-15-19(3,4)7-6-8-20(15,5)16(13)18(23)17(12)22/h9,11,14-15,21-23H,6-8,10H2,1-5H3
Instrument: TripleToF 5600, Sciex
Instrument type: ESI-QTOF
Ms type: MS2
Ion mode: NEGATIVE
Ionization: ESI
Collision energy: -55V
Column name: Acquity CSHC18
Retention time: 12.407 min
Base peak: 317.2135
Precursor m/z: 317.2135
Precursor type: [M-H]-
Precursor intensity: 264226.4
m/z	relative intensity
164.0845	11
184.0845	5
199.0731	15
200.0841	27
211.073	5
213.0937	18
214.0984	28
215.1075	152
216.1087	28
227.0935	63
227.0998	66
228.1156	57
229.1209	16
241.1241	12
251.1065	13
253.1237	16
255.1376	9
267.1352	43
269.1462	54
269.1578	55
270.1615	12
282.1665	5
283.1704	125
284.176	76
285.1787	15
298.1987	15
299.2014	999
300.2107	438
301.2069	66
315.2	51
316.2032	66
317.2105	830
318.2195	419
319.2124	58
