Mass spectrum: Glyceraldehyde; ESI-TOF; MS2; CE: 6.0000000;  [M+H]+
Name: Glyceraldehyde
Class: NA
Formula: C3H6O3
Exact mass: 90.03169
SMILES: OCC(O)C=O
InChI: InChI=1S/C3H6O3/c4-1-3(6)2-5/h1,3,5-6H,2H2
Instrument: waters xevo g2 TOF
Instrument type: ESI-TOF
Ms type: MS2
Ion mode: POSITIVE
Ionization: ESI
Collision energy: 6.0000000
Column name: Acquity CSHC18
Retention time: 0.576 min
Base peak: 91.03969
Precursor m/z: 91.03969
Precursor type: [M+H]+
m/z	relative intensity
83.0087	2
87.0452	11
97.0297	58
98.033	2
99.0104	45
100.0484	4
101.0079	3
109.0291	2
110.0134	69
110.5146	2
110.9764	7
114.994	14
117.038	78
119.0189	8
126.0039	3
126.9939	69
127.9998	4
131.019	20
137.535	16
142.0398	4
143.0031	11
143.9601	6
144.5428	9
145.0035	139
146.0337	11
154.0101	3
154.998	54
155.9736	15
158.0032	5
162.037	19
163.0163	4
164.0164	6
165.0132	2
171.9667	3
173.0249	5
174.9691	41
175.975	4
176.9704	25
178.966	7
185.9633	5
187.0803	30
188.0305	2
191.0413	10
195.4843	1
195.9944	1
199.0604	6
200.0458	68
200.5464	9
201.9775	22
203.0535	999
204.0146	503
204.9764	109
206.9808	27
208.9769	3
209.9286	1
216.0579	3
217.0684	39
217.9891	2
219.0523	6
221.0394	26
224.9886	2
233.001	3
235.0353	78
236.0829	8
237.0848	1
245.0612	1
249.0951	62
275.0741	8
275.9929	12
293.0928	9
294.0037	51
295.0073	5
296.0097	1
302.0605	2
306.0068	1
307.1009	43
308.1051	4
309.1119	1
318.9186	1
339.1271	11
346.9201	1
366.023	1
386.8741	1
