Mass spectrum: Valine; LC-ESI-QTOF; MS2; CE: 30;  [M-H]-
Name: Valine
Class: NA
Formula: C5H11NO2
Exact mass: 117.07898
SMILES: CC(C)C(C(=O)O)N
InChI: InChI=1S/C5H11NO2/c1-3(2)4(6)5(7)8/h3-4H,6H2,1-2H3,(H,7,8)
Instrument: impact II
Instrument type: LC-ESI-QTOF
Ms type: MS2
Ion mode: NEGATIVE
Ionization: ESI
Collision energy: 30
Column name: Acquity CSHC18
Retention time: 2.008 min
Base peak: 116.07140
Precursor m/z: 116.07140
Precursor type: [M-H]-
m/z	relative intensity
99.9255	999
