Mass spectrum: isoxanthohumol; LC-ESI-ITFT; MS2; CE: 0.3;  [M+H]+
Name: isoxanthohumol
Class: flavanones
Formula: C21H22O5
Exact mass: 354.1467
SMILES: CC(=CCC1=C2C(=C(C=C1O)OC)C(=O)CC(O2)C3=CC=C(C=C3)O)C
InChI: InChI=1S/C21H22O5/c1-12(2)4-9-15-16(23)10-19(25-3)20-17(24)11-18(26-21(15)20)13-5-7-14(22)8-6-13/h4-8,10,18,22-23H,9,11H2,1-3H3
Instrument: LTQ-Orbitrap XL hybrid mass spectrometer (Thermo Scientific)
Instrument type: LC-ESI-ITFT
Ms type: MS2
Ion mode: POSITIVE
Ionization: ESI
Collision energy: 0.3
Column name: Acquity CSHC18
Retention time: 10.732 min
Base peak: 355.1555
Precursor m/z: 355.1555
Precursor type: [M+H]+
Precursor intensity: 74062540
m/z	relative intensity
88.8343	2
98.83	1
105.8802	1
113.9957	1
147.0445	16
179.0249	2
179.0346	301
179.0388	3
180.038	2
196.1085	6
197.0453	1
233.5379	1
235.083	2
235.0847	1
235.0977	327
235.1041	3
236.1009	3
236.673	2
257.0821	3
287.3383	8
287.3473	5
296.8562	3
297.5983	3
299.0402	3
299.0437	3
299.0519	4
299.0554	4
299.0598	5
299.0632	4
299.0674	6
299.0716	7
299.0747	6
299.0793	6
299.093	999
299.1023	10
299.1061	7
299.1106	9
299.1134	4
299.1222	5
299.1258	3
299.13	5
299.1334	2
300.0962	9
300.2982	2
300.6001	4
301.3567	5
313.1451	8
319.981	1
323.7602	2
344.2794	1
351.6057	2
355.1497	1
