Mass spectrum: CYTIDINE; LC-ESI-QFT; MS2; CE: 30eV;  [M+H]+
Name: CYTIDINE
Class: NA
Formula: C9H13N3O5
Exact mass: 243.08552
SMILES: NC1=NC(=O)N(C=C1)[C@@H]1O[C@H](CO)[C@@H](O)[C@H]1O
InChI: InChI=1S/C9H13N3O5/c10-5-1-2-12(9(16)11-5)8-7(15)6(14)4(3-13)17-8/h1-2,4,6-8,13-15H,3H2,(H2,10,11,16)/t4-,6-,7-,8-/m1/s1
Instrument: Q-Exactive Orbitrap, Thermo Scientfic; Ultimate 3000 HPLC, Thermo Scientfic
Instrument type: LC-ESI-QFT
Ms type: MS2
Ion mode: POSITIVE
Ionization: ESI
Collision energy: 30eV
Column name: Acquity CSHC18
Retention time: 0.673 min
Base peak: 244.0928
Precursor m/z: 244.0928
Precursor type: [M+H]+
Precursor intensity: 121
m/z	relative intensity
50.2315	18
53.9932	18
54.4535	18
56.976	22
57.0343	30
57.1317	21
68.9388	25
69.0454	48
70.4209	22
94.0407	31
95.0219	37
95.0244	279
96.3722	24
105.0991	22
113.0481	241
113.0543	999
115.0394	52
117.7625	26
122.3834	25
133.0497	37
134.0327	167
191.566	24
192.4161	24
212.8474	24
224.1835	23
238.5278	24
254.1881	25
256.0585	29
