Mass spectrum: CARNOSINE; LC-ESI-QTOF; MS2; CE: 40;  [M+H]+
Name: CARNOSINE
Class: NA
Formula: C9H14N4O3
Exact mass: 226.1066
SMILES: NCCC(=O)N[C@@H](CC1=CN=CN1)C(O)=O
InChI: InChI=1S/C9H14N4O3/c10-2-1-8(14)13-7(9(15)16)3-6-4-11-5-12-6/h4-5,7H,1-3,10H2,(H,11,12)(H,13,14)(H,15,16)/t7-/m0/s1
Instrument: Agilent 6530Â Q-TOF LC/MS
Instrument type: LC-ESI-QTOF
Ms type: MS2
Ion mode: POSITIVE
Ionization: ESI
Collision energy: 40
Column name: NA
Retention time: 0.200 min
Base peak: 227.11373
Precursor m/z: 227.11373
Precursor type: [M+H]+
Precursor intensity: 170.5
m/z	relative intensity
55.0513	540
83.0586	564
93.0426	574
95.0554	999
