Mass spectrum: Guanosine; LC-ESI-ITFT; MS2; CE: 100;  [M+H]+
Name: Guanosine
Class: Nucleosides, nucleotides, and analogues; Purine nucleosides
Formula: C10H13N5O5
Exact mass: 283.09167
SMILES: NC1=NC2=C(N=CN2[C@@H]2O[C@H](CO)[C@@H](O)[C@H]2O)C(=O)N1
InChI: InChI=1S/C10H13N5O5/c11-10-13-7-4(8(19)14-10)12-2-15(7)9-6(18)5(17)3(1-16)20-9/h2-3,5-6,9,16-18H,1H2,(H3,11,13,14,19)/t3-,5-,6-,9-/m1/s1
Instrument: Thermo Scientific Q-Exactive Focus
Instrument type: LC-ESI-ITFT
Ms type: MS2
Ion mode: POSITIVE
Ionization: ESI
Collision energy: 100
Column name: Acquity CSHC18
Retention time: 2.570 min
Base peak: 284.09894
Precursor m/z: 284.09894
Precursor type: [M+H]+
m/z	relative intensity
53.0141	26
53.998	49
55.0297	999
65.014	251
68.0136	32
68.0248	168
71.0132	53
80.0248	257
82.0404	40
93.0087	54
