Mass spectrum: Sphinganine; LC-ESI-ITFT; MS2; CE: 10;  [M+H]+
Name: Sphinganine
Class: Organic nitrogen compounds; Organonitrogen compounds; Amines
Formula: C18H39NO2
Exact mass: 301.29808
SMILES: CCCCCCCCCCCCCCC[C@@H](O)[C@@H](N)CO
InChI: InChI=1S/C18H39NO2/c1-2-3-4-5-6-7-8-9-10-11-12-13-14-15-18(21)17(19)16-20/h17-18,20-21H,2-16,19H2,1H3/t17-,18+/m0/s1
Instrument: Thermo Scientific Q-Exactive Focus
Instrument type: LC-ESI-ITFT
Ms type: MS2
Ion mode: POSITIVE
Ionization: ESI
Collision energy: 10
Column name: Acquity CSHC18
Retention time: 0.348 min
Base peak: 302.30536
Precursor m/z: 302.30536
Precursor type: [M+H]+
m/z	relative intensity
60.0448	217
81.0701	17
95.0858	22
97.1015	16
109.1012	14
240.2681	14
254.2837	20
266.2838	50
284.2944	769
302.3051	999
