Mass spectrum: L-Glutamine; LC-ESI-ITFT; MS2; CE: 100;  [M-H]-
Name: L-Glutamine
Class: Organic acids and derivatives; Carboxylic acids and derivatives; Amino acids, peptides, and analogues
Formula: C5H10N2O3
Exact mass: 146.06914
SMILES: N[C@@H](CCC(N)=O)C(O)=O
InChI: InChI=1S/C5H10N2O3/c6-3(5(9)10)1-2-4(7)8/h3H,1-2,6H2,(H2,7,8)(H,9,10)/t3-/m0/s1
Instrument: Thermo Scientific Q-Exactive Focus
Instrument type: LC-ESI-ITFT
Ms type: MS2
Ion mode: NEGATIVE
Ionization: ESI
Collision energy: 100
Column name: Acquity CSHC18
Retention time: 2.586 min
Base peak: 145.06187
Precursor m/z: 145.06187
Precursor type: [M-H]-
m/z	relative intensity
57.1561	777
71.6526	760
83.5345	762
96.5343	768
108.2671	999
111.0777	762
114.1398	881
123.2154	829
152.494	909
160.3175	801
