Mass spectrum: galactitol; LC-ESI-QTOF; MS2; CE: -10, -35, -60V;  [M-H]-
Name: galactitol
Class: NA
Formula: C6H14O6
Exact mass: 182.0790
SMILES: C(C(C(C(C(CO)O)O)O)O)O
InChI: InChI=1S/C6H14O6/c7-1-3(9)5(11)6(12)4(10)2-8/h3-12H,1-2H2
Instrument: TripleToF 5600; Sciex
Instrument type: LC-ESI-QTOF
Ms type: MS2
Ion mode: NEGATIVE
Ionization: ESI
Collision energy: -10, -35, -60V
Column name: Acquity CSHC18
Retention time: 0.674 min
Base peak: 181.0749
Precursor m/z: 181.0749
Precursor type: [M-H]-
Precursor intensity: 606391.9
m/z	relative intensity
71.0128	121
73.0288	20
83.0132	17
85.029	24
89.0212	96
89.0252	96
97.0314	4
101.019	137
101.0275	137
113.0265	14
115.0418	8
119.038	58
149.0443	18
161.0466	18
163.0645	133
179.0515	10
180.5088	25
181.0744	999
