Mass spectrum: Coumarin; LC-ESI-QTOF; MS2; CE: 15.00;  [M+H]+
Name: Coumarin
Class: NA
Formula: C9H6O2
Exact mass: 146.0368
SMILES: C1=CC=C2C(=C1)C=CC(=O)O2
InChI: InChI=1S/C9H6O2/c10-9-6-5-7-3-1-2-4-8(7)11-9/h1-6H
Instrument: Bruker MicrOTOF-Q
Instrument type: LC-ESI-QTOF
Ms type: MS2
Ion mode: POSITIVE
Ionization: ESI
Collision energy: 15.00
Column name: Acquity CSHC18
Retention time: NA
Base peak: 147.0441
Precursor m/z: 147.0441
Precursor type: [M+H]+
m/z	relative intensity
103.0553	6
118.0365	2
119.0476	5
146.9565	3
147.0431	999
147.2045	1
147.2438	1
147.3539	1
147.3865	1
148.0466	106
149.0465	1
