Mass spectrum: Chelerythrine; LC-ESI-ITFT; MS2; CE: 0.3;  [M]+
Name: Chelerythrine
Class: alkaloids
Formula: [C21H18NO4]+
Exact mass: 348.1230
SMILES: C[N+]1=C2C(=C3C=CC(=C(C3=C1)OC)OC)C=CC4=CC5=C(C=C42)OCO5
InChI: InChI=1S/C21H18NO4/c1-22-10-16-13(6-7-17(23-2)21(16)24-3)14-5-4-12-8-18-19(26-11-25-18)9-15(12)20(14)22/h4-10H,11H2,1-3H3/q+1
Instrument: LTQ-Orbitrap XL hybrid mass spectrometer (Thermo Scientific)
Instrument type: LC-ESI-ITFT
Ms type: MS2
Ion mode: POSITIVE
Ionization: ESI
Collision energy: 0.3
Column name: Acquity CSHC18
Retention time: 6.916 min
Base peak: 348.1228
Precursor m/z: 348.1228
Precursor type: [M]+
Precursor intensity: 96902890
m/z	relative intensity
85.315	6
85.6271	5
86.1237	6
86.985	6
87.1814	5
91.8278	7
91.9004	6
95.5049	5
95.5346	6
95.5985	6
95.7018	6
95.8535	5
96.3138	6
98.3052	7
99.2965	6
104.5336	7
108.0529	6
113.8762	7
114.5729	7
114.8963	7
116.0333	9
116.3805	7
119.4886	7
119.518	7
122.1077	7
123.2761	9
130.0992	7
136.8423	7
141.4659	8
143.2417	7
143.486	8
144.4352	10
145.8902	7
148.333	8
149.0741	8
152.0231	9
152.1365	9
179.576	8
232.0104	9
304.0967	225
315.0888	114
317.102	10
318.0757	51
330.4724	9
332.0915	366
333.0991	999
334.1034	39
348.122	23
