Mass spectrum: Luteolin 7-glucoside; LC-ESI-QTOF; MS2; CE: 50eV;  [M+H]+
Name: Luteolin 7-glucoside
Class: Flavone
Formula: C21H20O11
Exact mass: 448.1006
SMILES: C1=CC(=C(C=C1C2=CC(=O)C3=C(C=C(C=C3O2)OC4C(C(C(C(O4)CO)O)O)O)O)O)O
InChI: InChI=1S/C21H20O11/c22-7-16-18(27)19(28)20(29)21(32-16)30-9-4-12(25)17-13(26)6-14(31-15(17)5-9)8-1-2-10(23)11(24)3-8/h1-6,16,18-25,27-29H,7H2
Instrument: TIMS-TOF Pro, Bruker Daltonik; Elute UHPLC System, Bruker Daltonik
Instrument type: LC-ESI-QTOF
Ms type: MS2
Ion mode: POSITIVE
Ionization: ESI
Collision energy: 50eV
Column name: Acquity CSHC18
Retention time: 5.213 min
Base peak: 449.1069
Precursor m/z: 449.1069
Precursor type: [M+H]+
Precursor intensity: 157471.6
m/z	relative intensity
153.0177	2
287.016	8
287.0509	999
287.3306	1
287.5512	5
288.0141	1
288.041	3
288.0599	87
289.0625	2
449.1069	10
