Mass spectrum: 1-oleoyl-2-hydroxy-sn-glycero-3-phosphocholine; ESI-TOF; MS2; CE: 0.6458333;  [M+H]+
Name: 1-oleoyl-2-hydroxy-sn-glycero-3-phosphocholine
Class: NA
Formula: C26H52NO7P
Exact mass: 521.34814
SMILES: O[C@@H](COP(OCC[N+](C)(C)C)([O-])=O)COC(CCCCCCC/C=C\CCCCCCCC)=O
InChI: InChI=1S/C26H52NO7P/c1-5-6-7-8-9-10-11-12-13-14-15-16-17-18-19-20-26(29)32-23-25(28)24-34-35(30,31)33-22-21-27(2,3)4/h12-13,25,28H,5-11,14-24H2,1-4H3/b13-12-/t25-/m1/s1
Instrument: waters xevo g2 TOF
Instrument type: ESI-TOF
Ms type: MS2
Ion mode: POSITIVE
Ionization: ESI
Collision energy: 0.6458333
Column name: Acquity CSHC18
Retention time: 6.575 min
Base peak: 522.35614
Precursor m/z: 522.35614
Precursor type: [M+H]+
m/z	relative intensity
86.0971	58
87.0997	1
102.0915	1
104.1075	726
105.1108	88
106.1126	3
111.5144	2
112.9913	13
118.921	1
120.5192	4
125.0003	13
129.5251	6
135.1166	1
136.9315	2
146.9824	8
148.5328	15
157.5385	5
162.9814	5
166.0636	12
181.0264	2
184.074	999
185.0774	64
186.0783	19
192.9577	4
222.0214	1
224.1049	2
226.0156	1
240.1001	7
258.1109	33
259.1151	2
271.6507	1
280.6564	1
296.0568	1
321.2112	12
322.214	2
339.2904	36
340.2944	14
445.2715	29
446.2741	7
457.2027	7
458.2063	2
485.262	27
486.2659	5
487.2701	1
504.3199	126
505.3475	56
506.3508	20
507.355	1
511.7922	5
512.2934	2
520.2471	1
522.3562	524
523.36	324
