Mass spectrum: O-acyl sugar AS11; LC-ESI-QTOF; MS2; CE: 22.5eV; [M+Na]+
Name: O-acyl sugar AS11
Class: O-acyl sugar
Formula: C31H52O15
Exact mass: 664.3306
SMILES: CC(CCC)C(=O)O[C@H]1[C@H](O[C@H](CO)[C@@H](OC(=O)C(C)CCC)[C@@H]1OC(=O)C(C)CC)O[C@]1(CO)O[C@H](CO)[C@@H](OC(C)=O)[C@@H]1O
InChI: InChI=1S/C31H52O15/c1-8-11-17(5)28(38)42-22-20(13-32)41-30(46-31(15-34)26(36)23(40-19(7)35)21(14-33)45-31)25(44-29(39)18(6)12-9-2)24(22)43-27(37)16(4)10-3/h16-18,20-26,30,32-34,36H,8-15H2,1-7H3/t16?,17?,18?,20-,21-,22-,23-,24+,25-,26+,30-,31+/m1/s1
Instrument: Microtof-q MS
Instrument type: LC-ESI-QTOF
Ms type: MS2
Ion mode: POSITIVE
Ionization: ESI
Collision energy: 22.5eV
Column name: Acquity CSH C18 column (particle size 1.7 μm, column length 2.1 × 50 mm) (Waters)
Retention time: NA
Base peak: 687.3213
Precursor m/z: 687.3213
Precursor type: [M+Na]+
m/z	relative intensity
97.0285	37
205.0713	54
367.1723	56
483.2559	300
571.2363	48
585.2495	17
687.3213	999
