Mass spectrum: ADENOSINE 3',5'-DIPHOSPHATE; LC-ESI-QTOF; MS2; CE: 40;  [M-H]-
Name: ADENOSINE 3',5'-DIPHOSPHATE
Class: NA
Formula: C10H15N5O10P2
Exact mass: 427.02941
SMILES: NC1=C2N=CN([C@@H]3O[C@H](COP(O)(O)=O)[C@@H](OP(O)(O)=O)[C@H]3O)C2=NC=N1
InChI: InChI=1S/C10H15N5O10P2/c11-8-5-9(13-2-12-8)15(3-14-5)10-6(16)7(25-27(20,21)22)4(24-10)1-23-26(17,18)19/h2-4,6-7,10,16H,1H2,(H2,11,12,13)(H2,17,18,19)(H2,20,21,22)/t4-,6-,7-,10-/m1/s1
Instrument: Agilent 6530Â Q-TOF LC/MS
Instrument type: LC-ESI-QTOF
Ms type: MS2
Ion mode: NEGATIVE
Ionization: ESI
Collision energy: 40
Column name: NA
Retention time: 0.200 min
Base peak: 426.02217
Precursor m/z: 426.02217
Precursor type: [M-H]-
Precursor intensity: 172
m/z	relative intensity
78.9749	124
107.0384	376
134.0636	467
158.9421	999
