Mass spectrum: Nicotianoside III; LC-ESI-QTOF; MS2; CE: 17.3eV;  [M+NH4]+
Name: Nicotianoside III
Class: Diterpene
Formula: C44H74O20
Exact mass: 922.4773
SMILES: O[C@@H]1[C@H](O)[C@@H](O)[C@H](C)O[C@H]1O[C@@H]1[C@H](O)[C@@H](O)[C@@H](O[C@@H]1CO)OCC(/C)=C\CCC(\C)=C\CCC(\C)=C\CC[C@](C)(O[C@@H]1O[C@H](CO)[C@@H](O[C@@H]2O[C@@H](C)[C@H](O)[C@@H](O)[C@H]2O)[C@H](O)[C@H]1O)C=C
InChI: InChI=1S/C44H74O20/c1-8-44(7,64-43-37(56)33(52)39(27(19-46)61-43)63-42-35(54)31(50)29(48)25(6)59-42)17-11-16-22(3)13-9-12-21(2)14-10-15-23(4)20-57-40-36(55)32(51)38(26(18-45)60-40)62-41-34(53)30(49)28(47)24(5)58-41/h8,12,15-16,24-43,45-56H,1,9-11,13-14,17-20H2,2-7H3/b21-12+,22-16+,23-15-/t24-,25-,26+,27+,28-,29-,30+,31+,32+,33+,34+,35+,36+,37+,38-,39+,40+,41-,42-,43-,44+/m0/s1
Instrument: Impact II qTOF
Instrument type: LC-ESI-QTOF
Ms type: MS2
Ion mode: POSITIVE
Ionization: ESI
Collision energy: 17.3eV
Column name: Acquity CSH C18 column (particle size 1.7 μm, column length 2.1 × 50 mm) (Waters)
Retention time: 22.3 min
Base peak: 940.5110
Precursor m/z: 940.5110
Precursor type: [M+NH4]+
m/z	relative intensity
129.0545	56
147.0656	111
177.1637	28
215.1796	35
271.242	805
272.2457	162
273.0973	70
273.2558	31
289.2522	200
290.257	37
293.1234	489
294.1287	58
309.1178	229
310.1235	38
327.1278	38
381.2776	35
399.2896	84
417.3004	325
418.3044	93
419.1556	48
435.3115	144
436.3136	51
451.3064	63
455.1767	279
456.1793	55
473.1858	126
563.3581	53
581.3689	59
582.3737	29
597.3652	121
598.3664	42
617.2281	37
743.4215	120
744.4278	68
905.4744	41
923.4839	45
924.4889	34
940.511	999
