Mass spectrum: L-Kynurenine; LC-ESI-ITFT; MS2; CE: 40;  [M+H]+
Name: L-Kynurenine
Class: Organic oxygen compounds; Organooxygen compounds; Carbonyl compounds
Formula: C10H12N2O3
Exact mass: 208.08479
SMILES: N[C@@H](CC(=O)C1=CC=CC=C1N)C(O)=O
InChI: InChI=1S/C10H12N2O3/c11-7-4-2-1-3-6(7)9(13)5-8(12)10(14)15/h1-4,8H,5,11-12H2,(H,14,15)/t8-/m0/s1
Instrument: Thermo Scientific Q-Exactive Focus
Instrument type: LC-ESI-ITFT
Ms type: MS2
Ion mode: POSITIVE
Ionization: ESI
Collision energy: 40
Column name: Acquity CSHC18
Retention time: NA
Base peak: 209.09207
Precursor m/z: 209.09207
Precursor type: [M+H]+
m/z	relative intensity
65.0391	233
91.0546	999
92.0499	428
94.0655	390
95.0495	195
117.0575	176
118.0653	451
120.0446	445
132.0445	231
146.0601	448
