Mass spectrum: acyl sugar_S4:21 (2,4,5,10); LC-ESI-ITFT; MS2; CE: 35 NCE;  [M+FA-H]-
Name: acyl sugar_S4:21 (2,4,5,10)
Class: acyl sugar
Formula: C33H56O15
Exact mass: 692.3619
SMILES: CC(C)CCCCCCC(=O)OC1C(C(OC1(CO)OC2C(C(C(C(O2)CO)OC(=O)CC(C)C)OC(=O)C(C)C)OC(=O)C)CO)O
InChI: InChI=1S/C33H56O15/c1-18(2)12-10-8-9-11-13-24(38)45-30-26(40)22(15-34)47-33(30,17-36)48-32-29(42-21(7)37)28(46-31(41)20(5)6)27(23(16-35)43-32)44-25(39)14-19(3)4/h18-20,22-23,26-30,32,34-36,40H,8-17H2,1-7H3
Instrument: LTQ Orbitrap XL, Thermo Scientfic; Aquity (U)HPLC, Waters
Instrument type: LC-ESI-ITFT
Ms type: MS2
Ion mode: NEGATIVE
Ionization: ESI
Collision energy: 35 NCE
Column name: Acquity CSHC18
Retention time: 37.148 min
Base peak: 737.3593
Precursor m/z: 737.3593
Precursor type: [M+FA-H]-
Precursor intensity: 143141.4
m/z	relative intensity
320.58	71
525.6995	999
607.2957	618
