Mass spectrum: pilocarpine; LC-ESI-ITFT; MS2; CE: 0.3;  [M+H]+
Name: pilocarpine
Class: alkaloids
Formula: C11H16N2O2
Exact mass: 208.1212
SMILES: CCC1C(COC1=O)CC2=CN=CN2C
InChI: InChI=1S/C11H16N2O2/c1-3-10-8(6-15-11(10)14)4-9-5-12-7-13(9)2/h5,7-8,10H,3-4,6H2,1-2H3
Instrument: LTQ-Orbitrap XL hybrid mass spectrometer (Thermo Scientific)
Instrument type: LC-ESI-ITFT
Ms type: MS2
Ion mode: POSITIVE
Ionization: ESI
Collision energy: 0.3
Column name: Acquity CSHC18
Retention time: 1.878 min
Base peak: 209.1283
Precursor m/z: 209.1283
Precursor type: [M+H]+
Precursor intensity: 13578630
m/z	relative intensity
71.7924	4
72.0747	3
81.0388	6
94.0652	4
95.06	107
96.0682	4
97.076	3
109.0756	11
118.8589	3
121.0757	56
122.0833	7
122.0963	54
132.0805	10
133.0758	5
134.0848	4
135.0914	34
136.1118	17
145.9469	2
146.0961	4
147.0918	3
148.099	8
151.1226	15
154.3873	2
157.8142	3
161.1076	10
163.0832	10
163.0938	8
163.1229	805
163.1463	3
163.152	5
163.1582	4
165.1385	8
167.0161	16
168.1021	7
180.0909	3
181.1334	26
182.1172	7
191.118	110
197.6189	5
209.0595	5
209.0771	4
209.0856	4
209.0949	5
209.1284	999
209.1778	6
