Mass spectrum: daphnoretin; LC-ESI-ITFT; MS2; CE: 0.3;  [M-H]-
Name: daphnoretin
Class: coumarins
Formula: C19H12O7
Exact mass: 352.0583
SMILES: COC1=C(C=C2C(=C1)C=C(C(=O)O2)OC3=CC4=C(C=C3)C=CC(=O)O4)O
InChI: InChI=1S/C19H12O7/c1-23-16-6-11-7-17(19(22)26-15(11)9-13(16)20)24-12-4-2-10-3-5-18(21)25-14(10)8-12/h2-9,20H,1H3
Instrument: LTQ-Orbitrap XL hybrid mass spectrometer (Thermo Scientific)
Instrument type: LC-ESI-ITFT
Ms type: MS2
Ion mode: NEGATIVE
Ionization: ESI
Collision energy: 0.3
Column name: Acquity CSHC18
Retention time: 9.117 min
Base peak: 351.0509
Precursor m/z: 351.0509
Precursor type: [M-H]-
Precursor intensity: 6502099
m/z	relative intensity
94.2981	1
105.5327	1
122.9152	1
136.9007	1
150.0623	1
163.004	4
167.1286	6
168.5643	1
190.9991	4
197.747	1
206.0223	5
262.8473	1
264.0429	1
279.0666	14
280.0385	7
287.1621	3
292.0375	21
293.0458	3
295.061	14
307.0228	1
307.0603	3
308.0328	65
314.4912	1
322.0489	2
322.3459	1
323.056	63
324.2098	2
332.492	1
333.3576	2
335.7414	2
335.7596	2
335.7787	2
335.7974	2
335.815	3
335.835	3
335.8528	4
335.8726	3
335.8895	5
335.9087	5
335.9275	5
335.9455	6
335.9644	4
336.0276	999
336.0945	6
336.1137	6
336.1317	5
336.1504	5
336.1698	4
336.1873	4
336.2063	4
336.2254	3
336.2437	3
336.2614	3
336.2836	1
336.2985	2
336.3193	1
336.3362	2
336.9149	2
337.0324	15
