Mass spectrum: 15(R)-15-methyl Prostaglandin A2; ESI-TOF; MS2; CE: 6.0000000;  [M+H]+
Name: 15(R)-15-methyl Prostaglandin A2
Class: NA
Formula: C21H32O4
Exact mass: 348.23006
SMILES: O=C1[C@H](C/C=C\CCCC(O)=O)[C@@H](/C=C/[C@](C)(O)CCCCC)C=C1
InChI: InChI=1S/C21H32O4/c1-3-4-9-15-21(2,25)16-14-17-12-13-19(22)18(17)10-7-5-6-8-11-20(23)24/h5,7,12-14,16-18,25H,3-4,6,8-11,15H2,1-2H3,(H,23,24)/b7-5-,16-14+/t17-,18-,21-/m1/s1
Instrument: waters xevo g2 TOF
Instrument type: ESI-TOF
Ms type: MS2
Ion mode: POSITIVE
Ionization: ESI
Collision energy: 6.0000000
Column name: Acquity CSHC18
Retention time: 4.058 min
Base peak: 349.23806
Precursor m/z: 349.23806
Precursor type: [M+H]+
m/z	relative intensity
119.0858	1
149.1329	3
150.0517	3
155.0863	1
159.0818	1
164.0667	2
173.097	2
176.087	4
185.0963	21
187.1504	4
189.1104	1
197.096	3
201.1653	6
203.1453	6
211.1481	3
215.1078	10
217.1575	7
229.1594	44
230.1625	15
233.1182	2
243.1194	1
247.0646	3
259.0656	2
267.2119	4
277.1948	7
295.2053	79
296.2074	14
313.2163	999
314.2204	249
315.2238	17
326.3808	2
331.2271	637
332.2303	90
333.234	19
349.2377	19
350.2006	173
350.7012	83
351.2047	19
