Mass spectrum: Taxifolin; LC-ESI-ITFT; MS2; CE: 35eV;  [M-H]-
Name: Taxifolin
Class: Flavonoid
Formula: C15H12O7
Exact mass: 304.0583
SMILES: C1=CC(=C(C=C1C2C(C(=O)C3=C(C=C(C=C3O2)O)O)O)O)O
InChI: InChI=1S/C15H12O7/c16-7-4-10(19)12-11(5-7)22-15(14(21)13(12)20)6-1-2-8(17)9(18)3-6/h1-5,14-19,21H
Instrument: LTQ Orbitrap XL, Thermo Scientfic; Dionex Ultimate 300
Instrument type: LC-ESI-ITFT
Ms type: MS2
Ion mode: NEGATIVE
Ionization: ESI
Collision energy: 35eV
Column name: Lichrospher C18 Column 250*4 5um, Interchim
Retention time: 38.75 min
Base peak: 303.0496
Precursor m/z: 303.0496
Precursor type: [M-H]-
m/z	relative intensity
175.1383	9
177.2162	1
199.1591	4
217.2912	3
241.1813	16
243.1114	3
257.2568	1
303.12	999
