Mass spectrum: H-Ile-Phe; LC-ESI-QTOF; MS2; CE: 31.15;  [2M+H]+
Name: H-Ile-Phe
Class: NA
Formula: C15H22N2O3
Exact mass: 278.1630
SMILES: CCC(C)C(C(=O)NC(CC1=CC=CC=C1)C(=O)O)N
InChI: InChI=1S/C15H22N2O3/c1-3-10(2)13(16)14(18)17-12(15(19)20)9-11-7-5-4-6-8-11/h4-8,10,12-13H,3,9,16H2,1-2H3,(H,17,18)(H,19,20)
Instrument: Bruker MicrOTOF-Q
Instrument type: LC-ESI-QTOF
Ms type: MS2
Ion mode: POSITIVE
Ionization: ESI
Collision energy: 31.15
Column name: Acquity CSHC18
Retention time: NA
Base peak: 557.3334
Precursor m/z: 557.3334
Precursor type: [2M+H]+
m/z	relative intensity
166.08	80
167.08	15
188.04	4
192.06	6
217.16	5
231.22	3
233.16	30
234.17	11
251.17	3
261.15	8
267.02	3
277.97	4
278.19	3
279.07	8
279.17	999
279.6	4
279.67	8
279.79	5
280.17	159
280.32	3
280.38	4
280.71	4
281.17	23
467.29	4
606.78	4
803.41	4
