Mass spectrum: Cyanidin 3,5-O-diglucoside; LC-ESI-QTOF; MS2; CE: 50eV;  [M]+
Name: Cyanidin 3,5-O-diglucoside
Class: Anthocyanin
Formula: [C27H31O16]+
Exact mass: 611.1607
SMILES: C1=CC(=C(C=C1C2=C(C=C3C(=CC(=CC3=[O+]2)O)OC4C(C(C(C(O4)CO)O)O)O)OC5C(C(C(C(O5)CO)O)O)O)O)O
InChI: InChI=1S/C27H30O16/c28-7-17-19(33)21(35)23(37)26(42-17)40-15-5-10(30)4-14-11(15)6-16(25(39-14)9-1-2-12(31)13(32)3-9)41-27-24(38)22(36)20(34)18(8-29)43-27/h1-6,17-24,26-29,33-38H,7-8H2,(H2-,30,31,32)/p+1
Instrument: TIMS-TOF Pro, Bruker Daltonik; Elute UHPLC System, Bruker Daltonik
Instrument type: LC-ESI-QTOF
Ms type: MS2
Ion mode: POSITIVE
Ionization: ESI
Collision energy: 50eV
Column name: Acquity CSHC18
Retention time: 3.168 min
Base peak: 611.1542
Precursor m/z: 611.1542
Precursor type: [M]+
Precursor intensity: 212613
m/z	relative intensity
124.0447	2
182.064	2
203.334	3
225.905	2
253.0468	2
285.0397	1
286.9582	4
287.012	16
287.0281	26
287.0523	999
287.5337	7
287.5605	3
288.0316	10
288.0558	133
288.1474	1
288.2794	2
288.4195	1
289.0611	9
289.5226	1
413.0776	2
448.5274	3
449.0417	9
449.1056	612
449.7076	5
450.0038	2
450.1081	112
451.1118	28
452.1166	2
490.0793	1
609.6098	1
611.0875	4
611.1542	176
