Mass spectrum: 3,7,4'-Tri-O-methylquercetin; LC-ESI-QTOF; MS2; CE: 50eV;  [M+H]+
Name: 3,7,4'-Tri-O-methylquercetin
Class: Flavonol
Formula: C18H16O7
Exact mass: 344.0896
SMILES: COC1=C(C=C(C=C1)C2=C(C(=O)C3=C(C=C(C=C3O2)OC)O)OC)O
InChI: InChI=1S/C18H16O7/c1-22-10-7-12(20)15-14(8-10)25-17(18(24-3)16(15)21)9-4-5-13(23-2)11(19)6-9/h4-8,19-20H,1-3H3
Instrument: TIMS-TOF Pro, Bruker Daltonik; Elute UHPLC System, Bruker Daltonik
Instrument type: LC-ESI-QTOF
Ms type: MS2
Ion mode: POSITIVE
Ionization: ESI
Collision energy: 50eV
Column name: Acquity CSHC18
Retention time: 9.520 min
Base peak: 345.0956
Precursor m/z: 345.0956
Precursor type: [M+H]+
Precursor intensity: 233442.7
m/z	relative intensity
91.0553	1
126.1707	2
143.0518	3
151.0335	3
161.0286	1
167.0332	5
171.0372	1
173.0329	1
185.0431	2
188.0466	2
203.0353	3
203.0692	5
213.1531	2
216.0421	10
221.6753	1
231.0633	58
241.0474	3
244.0348	3
245.0396	5
256.0259	1
259.0328	4
259.0584	47
260.0629	6
266.0949	2
272.0102	2
286.0397	3
287.0307	3
287.0522	36
288.0584	6
289.0637	2
301.0602	2
314.9062	3
315.047	46
316.056	11
317.0497	1
324.1632	1
328.9024	1
329.0636	5
330.0169	6
330.0717	262
331.0756	37
332.0781	2
342.3834	1
344.9836	2
345.0514	9
345.0956	999
