Mass spectrum: 3-SULFINOALANINE; LC-ESI-QFT; MS2; CE: 30eV;  [M+H]+
Name: 3-SULFINOALANINE
Class: NA
Formula: C3H7NO4S
Exact mass: 153.00958
SMILES: N[C@@H](CS(=O)=O)C(O)=O
InChI: InChI=1S/C3H7NO4S/c4-2(3(5)6)1-9(7)8/h2,9H,1,4H2,(H,5,6)/t2-/m0/s1
Instrument: Q-Exactive Orbitrap, Thermo Scientfic; Ultimate 3000 HPLC, Thermo Scientfic
Instrument type: LC-ESI-QFT
Ms type: MS2
Ion mode: POSITIVE
Ionization: ESI
Collision energy: 30eV
Column name: Acquity CSHC18
Retention time: 0.548 min
Base peak: 154.0169
Precursor m/z: 154.0169
Precursor type: [M+H]+
Precursor intensity: 108
m/z	relative intensity
50.1725	1
50.8888	2
51.9408	3
54.7699	1
55.9352	4
58.8849	1
59.1491	2
63.2614	1
67.8994	2
68.9434	12
70.0295	14
71.0373	17
73.0292	17
74.0244	999
75.0277	4
84.536	2
85.9461	2
88.0399	219
89.0478	187
89.4014	2
89.753	2
106.3528	2
107.0861	3
108.0119	168
109.1018	3
109.9592	3
113.9639	3
114.972	17
121.0288	13
130.9823	9
131.9507	5
131.9873	4
135.1175	3
136.0066	257
137.0099	2
149.9617	19
153.0553	4
153.0912	5
153.1279	4
154.0171	179
154.9072	2
155.1293	2
