Mass spectrum: N1-Acetylspermine; LC-ESI-QTOF; MS2; CE: 30;  [M+H]+
Name: N1-Acetylspermine
Class: NA
Formula: C12H28N4O
Exact mass: 244.22631
SMILES: CC(=O)NCCCNCCCCNCCCN
InChI: InChI=1S/C12H28N4O/c1-12(17)16-11-5-10-15-8-3-2-7-14-9-4-6-13/h14-15H,2-11,13H2,1H3,(H,16,17)
Instrument: impact II
Instrument type: LC-ESI-QTOF
Ms type: MS2
Ion mode: POSITIVE
Ionization: ESI
Collision energy: 30
Column name: Acquity CSHC18
Retention time: 1.970 min
Base peak: 245.23300
Precursor m/z: 245.23300
Precursor type: [M+H]+
m/z	relative intensity
58.066	222
84.0811	452
100.0758	999
112.1119	822
129.1385	183
171.1488	104
