Mass spectrum: Berberine; LC-ESI-QTOF; MS2; CE: 17.71;  [M]+
Name: Berberine
Class: NA
Formula: [C20H18NO4]+
Exact mass: 336.1230
SMILES: COC1=C(C2=C[N+]3=C(C=C2C=C1)C4=CC5=C(C=C4CC3)OCO5)OC
InChI: InChI=1S/C20H18NO4/c1-22-17-4-3-12-7-16-14-9-19-18(24-11-25-19)8-13(14)5-6-21(16)10-15(12)20(17)23-2/h3-4,7-10H,5-6,11H2,1-2H3/q+1
Instrument: Bruker MicrOTOF-Q
Instrument type: LC-ESI-QTOF
Ms type: MS2
Ion mode: POSITIVE
Ionization: ESI
Collision energy: 17.71
Column name: Acquity CSHC18
Retention time: NA
Base peak: 336.1230
Precursor m/z: 336.1230
Precursor type: [M]+
m/z	relative intensity
292.0967	38
293.0999	44
304.0962	51
306.0763	101
320.0919	193
321.101	223
322.1029	259
336.1316	580
337.1272	847
338.1293	999
