Mass spectrum: GUANOSINE; LC-ESI-QFT; MS2; CE: 30eV;  [M+H]+
Name: GUANOSINE
Class: NA
Formula: C10H13N5O5
Exact mass: 283.09167
SMILES: NC1=NC2=C(N=CN2[C@@H]2O[C@H](CO)[C@@H](O)[C@H]2O)C(=O)N1
InChI: InChI=1S/C10H13N5O5/c11-10-13-7-4(8(19)14-10)12-2-15(7)9-6(18)5(17)3(1-16)20-9/h2-3,5-6,9,16-18H,1H2,(H3,11,13,14,19)/t3-,5-,6-,9-/m1/s1
Instrument: Q-Exactive Orbitrap, Thermo Scientfic; Ultimate 3000 HPLC, Thermo Scientfic
Instrument type: LC-ESI-QFT
Ms type: MS2
Ion mode: POSITIVE
Ionization: ESI
Collision energy: 30eV
Column name: Acquity CSHC18
Retention time: 1.134 min
Base peak: 284.0989
Precursor m/z: 284.0989
Precursor type: [M+H]+
Precursor intensity: 164
m/z	relative intensity
52.4905	15
57.0343	103
64.6967	16
66.48	16
70.8917	15
73.0291	44
85.0291	40
96.9589	19
97.029	35
99.3071	19
103.0394	18
109.0514	21
110.0354	116
112.7478	17
115.0394	90
120.6382	23
123.5646	21
128.0455	29
131.3999	19
133.0497	201
133.3432	19
135.0306	184
153.0411	316
153.0472	22
153.0483	25
153.054	402
153.0604	999
154.8192	17
190.5611	19
198.9839	20
252.2296	17
252.9454	19
284.0996	81
