Mass spectrum: GLYCOCHENODEOXYCHOLATE; LC-ESI-QFT; MS2; CE: 30eV;  [M+H]+
Name: GLYCOCHENODEOXYCHOLATE
Class: NA
Formula: C26H43NO5
Exact mass: 449.31412
SMILES: CC(CCC(=O)NCC(=O)O)C1CCC2C1(CCC3C2C(CC4C3(CCC(C4)O)C)O)C
InChI: InChI=1S/C26H43NO5/c1-15(4-7-22(30)27-14-23(31)32)18-5-6-19-24-20(9-11-26(18,19)3)25(2)10-8-17(28)12-16(25)13-21(24)29/h15-21,24,28-29H,4-14H2,1-3H3,(H,27,30)(H,31,32)
Instrument: Q-Exactive Orbitrap, Thermo Scientfic; Ultimate 3000 HPLC, Thermo Scientfic
Instrument type: LC-ESI-QFT
Ms type: MS2
Ion mode: POSITIVE
Ionization: ESI
Collision energy: 30eV
Column name: Acquity CSHC18
Retention time: 10.384 min
Base peak: 450.3214
Precursor m/z: 450.3214
Precursor type: [M+H]+
Precursor intensity: 123
m/z	relative intensity
52.5459	24
54.2829	27
56.5905	27
59.6962	25
63.9694	27
74.0971	858
75.1005	65
76.04	352
83.3765	29
84.2572	35
85.0655	33
85.3682	29
93.8521	26
101.4655	29
107.0862	40
114.4353	28
119.0857	33
121.1015	47
127.7409	28
128.0669	32
133.1015	34
135.1171	66
149.1327	72
158.0815	267
159.117	33
160.2066	43
161.1327	159
163.1121	67
172.0971	43
175.1484	71
177.1277	57
182.2628	29
185.1327	45
187.1487	35
189.1645	125
201.1644	244
211.1495	29
212.1282	46
215.18	203
216.182	31
225.1641	39
229.1597	38
229.1952	50
238.1433	127
252.1596	55
257.1903	44
304.1919	33
321.2579	401
337.0331	32
339.2692	544
340.2725	50
369.7189	33
414.3007	999
415.3046	130
