Mass spectrum: 1-C16 Ether MG; ESI-TOF; MS2; CE: 6.0000000;  [M+H]+
Name: 1-C16 Ether MG
Class: NA
Formula: C19H40O3
Exact mass: 316.29775
SMILES: [H]OC([H])([H])C([H])(O[H])C([H])([H])OC([H])([H])C([H])([H])C([H])([H])C([H])([H])C([H])([H])C([H])([H])C([H])([H])C([H])([H])C([H])([H])C([H])([H])C([H])([H])C([H])([H])C([H])([H])C([H])([H])C([H])([H])C([H])([H])[H]
InChI: InChI=1S/C19H40O3/c1-2-3-4-5-6-7-8-9-10-11-12-13-14-15-16-22-18-19(21)17-20/h19-21H,2-18H2,1H3
Instrument: waters xevo g2 TOF
Instrument type: ESI-TOF
Ms type: MS2
Ion mode: POSITIVE
Ionization: ESI
Collision energy: 6.0000000
Column name: Acquity CSHC18
Retention time: 7.567 min
Base peak: 317.30575
Precursor m/z: 317.30575
Precursor type: [M+H]+
m/z	relative intensity
71.0864	7
75.0453	30
85.1022	10
93.0555	66
131.0025	24
178.1308	345
178.6326	52
179.1327	7
187.1363	33
194.1449	7
198.6445	39
199.1465	7
255.2699	10
257.2485	19
299.2951	72
300.298	10
306.2498	15
311.1666	13
313.168	10
317.3061	999
318.3095	227
