Mass spectrum: N-Decanoic acid; LC-ESI-QTOF; MS2; CE: 15.00;  [M+H]+
Name: N-Decanoic acid
Class: NA
Formula: C10H20O2
Exact mass: 172.1463
SMILES: CCCCCCCCCC(=O)O
InChI: InChI=1S/C10H20O2/c1-2-3-4-5-6-7-8-9-10(11)12/h2-9H2,1H3,(H,11,12)
Instrument: Bruker MicrOTOF-Q
Instrument type: LC-ESI-QTOF
Ms type: MS2
Ion mode: POSITIVE
Ionization: ESI
Collision energy: 15.00
Column name: Acquity CSHC18
Retention time: NA
Base peak: 173.1536
Precursor m/z: 173.1536
Precursor type: [M+H]+
m/z	relative intensity
89.06	224
91.05	114
93.04	98
93.07	143
95.09	351
96.08	94
97.06	212
103.07	783
107.08	461
109.1	196
111.11	82
117.09	999
129.15	143
130.94	106
131.11	204
132.11	90
133.1	188
135.12	228
136.12	86
137.13	143
153.13	86
172.18	114
173.16	359
