Mass spectrum: Genistein;Prunetol; LC-ESI-QTOF; MS2; CE: 15.00;  [M+H]+
Name: Genistein;Prunetol
Class: NA
Formula: C15H10O5
Exact mass: 270.0528
SMILES: C1=CC(=CC=C1C2=COC3=CC(=CC(=C3C2=O)O)O)O
InChI: InChI=1S/C15H10O5/c16-9-3-1-8(2-4-9)11-7-20-13-6-10(17)5-12(18)14(13)15(11)19/h1-7,16-18H
Instrument: Bruker MicrOTOF-Q
Instrument type: LC-ESI-QTOF
Ms type: MS2
Ion mode: POSITIVE
Ionization: ESI
Collision energy: 15.00
Column name: Acquity CSHC18
Retention time: NA
Base peak: 271.0601
Precursor m/z: 271.0601
Precursor type: [M+H]+
m/z	relative intensity
215.0706	14
243.0652	41
253.0497	42
271.064	267
272.0642	999
