Mass spectrum: Isopimpinellin; LC-ESI-QTOF; MS2; CE: 15.00;  [M+H]+
Name: Isopimpinellin
Class: NA
Formula: C13H10O5
Exact mass: 246.0528
SMILES: COC1=C2C=COC2=C(C3=C1C=CC(=O)O3)OC
InChI: InChI=1S/C13H10O5/c1-15-10-7-3-4-9(14)18-12(7)13(16-2)11-8(10)5-6-17-11/h3-6H,1-2H3
Instrument: Bruker MicrOTOF-Q
Instrument type: LC-ESI-QTOF
Ms type: MS2
Ion mode: POSITIVE
Ionization: ESI
Collision energy: 15.00
Column name: Acquity CSHC18
Retention time: NA
Base peak: 247.0601
Precursor m/z: 247.0601
Precursor type: [M+H]+
m/z	relative intensity
217.0152	124
218.0174	129
232.0388	139
233.0409	918
247.062	983
248.0644	999
