Mass spectrum: thidiazuron; LC-ESI-ITFT; MS2; CE: 45eV;  [M+H]+
Name: thidiazuron
Class: herbicide
Formula: C9H8N4OS
Exact mass: 220.0419
SMILES: C1=CC=C(C=C1)NC(=O)NC2=CN=NS2
InChI: InChI=1S/C9H8N4OS/c14-9(12-8-6-10-13-15-8)11-7-4-2-1-3-5-7/h1-6H,(H2,11,12,14)
Instrument: LTQ Orbitrap XL, Thermo Scientfic; Dionex Ultimate 300
Instrument type: LC-ESI-ITFT
Ms type: MS2
Ion mode: POSITIVE
Ionization: ESI
Collision energy: 45eV
Column name: Alltima C18
Retention time: 15.41 min
Base peak: 221.0490
Precursor m/z: 221.0490
Precursor type: [M+H]+
m/z	relative intensity
73.8152	1
93.8629	999
193.0323	1
