Mass spectrum: Rutin; LC-ESI-ITFT; MS2; CE: 0.3;  [M-H]-
Name: Rutin
Class: flavonol glycosides
Formula: C27H30O16
Exact mass: 610.1534
SMILES: CC1C(C(C(C(O1)OCC2C(C(C(C(O2)OC3=C(OC4=CC(=CC(=C4C3=O)O)O)C5=CC(=C(C=C5)O)O)O)O)O)O)O)O
InChI: InChI=1S/C27H30O16/c1-8-17(32)20(35)22(37)26(40-8)39-7-15-18(33)21(36)23(38)27(42-15)43-25-19(34)16-13(31)5-10(28)6-14(16)41-24(25)9-2-3-11(29)12(30)4-9/h2-6,8,15,17-18,20-23,26-33,35-38H,7H2,1H3
Instrument: LTQ-Orbitrap XL hybrid mass spectrometer (Thermo Scientific)
Instrument type: LC-ESI-ITFT
Ms type: MS2
Ion mode: NEGATIVE
Ionization: ESI
Collision energy: 0.3
Column name: Acquity CSHC18
Retention time: 5.076 min
Base peak: 609.1458
Precursor m/z: 609.1458
Precursor type: [M-H]-
Precursor intensity: 8684451
m/z	relative intensity
167.0874	34
172.6351	6
178.9998	10
179.2549	5
197.7006	15
240.719	5
246.4469	6
255.0316	15
271.0238	33
273.0393	11
287.1394	18
300.0272	258
301.035	999
324.2298	18
343.0457	78
375.4281	6
377.9435	7
379.1336	7
386.2982	6
435.0406	5
435.8662	6
500.107	6
567.3526	6
591.1351	22
599.2058	6
