Mass spectrum: CREATINE; LC-ESI-QTOF; MS2; CE: 40;  [M-H]-
Name: CREATINE
Class: NA
Formula: C4H9N3O2
Exact mass: 131.06948
SMILES: CN(CC(O)=O)C(N)=N
InChI: InChI=1S/C4H9N3O2/c1-7(4(5)6)2-3(8)9/h2H2,1H3,(H3,5,6)(H,8,9)
Instrument: Agilent 6530Â Q-TOF LC/MS
Instrument type: LC-ESI-QTOF
Ms type: MS2
Ion mode: NEGATIVE
Ionization: ESI
Collision energy: 40
Column name: NA
Retention time: 0.200 min
Base peak: 130.06522
Precursor m/z: 130.06522
Precursor type: [M-H]-
Precursor intensity: 111
m/z	relative intensity
40.0054	116
41.0239	147
44.9982	172
88.0469	999
