Mass spectrum: 5-trans Prostaglandin F2-beta; ESI-TOF; MS2; CE: 6.0000000;  [M+H]+
Name: 5-trans Prostaglandin F2-beta
Class: NA
Formula: C20H34O5
Exact mass: 354.24062
SMILES: O[C@H]1[C@H](C/C=C/CCCC(O)=O)[C@@H](/C=C/[C@@H](O)CCCCC)[C@H](O)C1
InChI: InChI=1S/C20H34O5/c1-2-3-6-9-15(21)12-13-17-16(18(22)14-19(17)23)10-7-4-5-8-11-20(24)25/h4,7,12-13,15-19,21-23H,2-3,5-6,8-11,14H2,1H3,(H,24,25)/b7-4+,13-12+/t15-,16+,17+,18+,19+/m0/s1
Instrument: waters xevo g2 TOF
Instrument type: ESI-TOF
Ms type: MS2
Ion mode: POSITIVE
Ionization: ESI
Collision energy: 6.0000000
Column name: Acquity CSHC18
Retention time: 3.507 min
Base peak: 355.24862
Precursor m/z: 355.24862
Precursor type: [M+H]+
m/z	relative intensity
145.101	4
147.0814	1
157.1013	3
161.1336	2
166.0829	26
167.072	27
171.1185	3
173.1324	7
175.1186	6
183.117	1
185.1331	8
187.1122	26
188.1158	4
191.1053	4
195.1023	12
199.1478	3
201.1631	5
203.1431	12
205.1243	10
217.158	8
219.138	4
236.1708	4
239.178	7
247.2036	3
255.1904	1
257.1899	55
258.1944	8
259.203	7
263.2002	28
264.2018	3
265.1958	43
273.2212	11
275.1996	74
276.2037	10
277.2097	5
283.2062	127
284.2087	19
291.232	11
299.2012	7
301.2161	999
302.2189	219
303.2279	48
317.2101	16
319.2267	350
320.2258	3
321.2366	10
331.1581	4
335.2223	18
337.2347	84
338.2413	14
346.1253	16
347.1291	56
353.2304	5
356.2095	21
356.7124	5
