Mass spectrum: D-+ - Raffinose Adduct; LC-ESI-QTOF; MS2; CE: 38.51;  [M+CF3CO2H-H]-
Name: D-+ - Raffinose Adduct
Class: NA
Formula: C18H32O16
Exact mass: 504.1690
SMILES: C(C1C(C(C(C(O1)OCC2C(C(C(C(O2)OC3(C(C(C(O3)CO)O)O)CO)O)O)O)O)O)O)O
InChI: InChI=1S/C18H32O16/c19-1-5-8(22)11(25)13(27)16(31-5)30-3-7-9(23)12(26)14(28)17(32-7)34-18(4-21)15(29)10(24)6(2-20)33-18/h5-17,19-29H,1-4H2
Instrument: Bruker MicrOTOF-Q
Instrument type: LC-ESI-QTOF
Ms type: MS2
Ion mode: NEGATIVE
Ionization: ESI
Collision energy: 38.51
Column name: Acquity CSHC18
Retention time: NA
Base peak: 617.1546
Precursor m/z: 617.1546
Precursor type: [M+CF3CO2H-H]-
m/z	relative intensity
179.0556	469
221.066	999
243.0498	589
