Mass spectrum: Quinic acid; LC-ESI-ITFT; MS2; CE: 30;  [M-H]-
Name: Quinic acid
Class: Organic oxygen compounds; Organooxygen compounds; Alcohols and polyols
Formula: C7H12O6
Exact mass: 192.06339
SMILES: OC1C[C@@](O)(C[C@@H](O)[C@H]1O)C(O)=O
InChI: InChI=1S/C7H12O6/c8-3-1-7(13,6(11)12)2-4(9)5(3)10/h3-5,8-10,13H,1-2H2,(H,11,12)/t3-,4?,5-,7+/m1/s1
Instrument: Thermo Scientific Q-Exactive Focus
Instrument type: LC-ESI-ITFT
Ms type: MS2
Ion mode: NEGATIVE
Ionization: ESI
Collision energy: 30
Column name: Acquity CSHC18
Retention time: 0.927 min
Base peak: 191.05611
Precursor m/z: 191.05611
Precursor type: [M-H]-
m/z	relative intensity
59.0126	206
67.0177	60
71.0126	82
81.0333	75
85.0282	999
87.0075	161
93.0333	381
109.0283	72
127.0389	53
191.0553	67
