Mass spectrum: STEARATE; LC-ESI-QFT; MS2; CE: 30eV;  [M-H]-
Name: STEARATE
Class: NA
Formula: C18H36O2
Exact mass: 284.27153
SMILES: CCCCCCCCCCCCCCCCCC(O)=O
InChI: InChI=1S/C18H36O2/c1-2-3-4-5-6-7-8-9-10-11-12-13-14-15-16-17-18(19)20/h2-17H2,1H3,(H,19,20)
Instrument: Q-Exactive Orbitrap, Thermo Scientfic; Ultimate 3000 HPLC, Thermo Scientfic
Instrument type: LC-ESI-QFT
Ms type: MS2
Ion mode: NEGATIVE
Ionization: ESI
Collision energy: 30eV
Column name: Acquity CSHC18
Retention time: 14.995 min
Base peak: 283.2643
Precursor m/z: 283.2643
Precursor type: [M-H]-
Precursor intensity: 167
m/z	relative intensity
50.2235	99
52.9378	116
54.529	132
67.7157	127
69.4235	130
81.2816	141
92.1888	124
102.7128	133
117.7622	133
132.4859	138
148.4586	124
201.2643	179
251.3629	157
283.2643	999
