Mass spectrum: Linoleoyl ethanolamide; LC-ESI-QTOF; MS2; CE: 20-40eV;  [M+H]+
Name: Linoleoyl ethanolamide
Class: Fatty acid
Formula: C20H37NO2
Exact mass: 323.2824
SMILES: CCCCCC(=C(CC(=C(CCCCCCCC(=NCCO)O)[H])[H])[H])[H]
InChI: InChI=1S/C20H37NO2/c1-2-3-4-5-6-7-8-9-10-11-12-13-14-15-16-17-20(23)21-18-19-22/h6-7,9-10,22H,2-5,8,11-19H2,1H3,(H,21,23)
Instrument: Impact II, Bruker; Dionex 3000, Thermo Scientific
Instrument type: LC-ESI-QTOF
Ms type: MS2
Ion mode: POSITIVE
Ionization: ESI
Collision energy: 20-40eV
Column name: Acquity CSHC18
Retention time: 22.362 min
Base peak: 324.2887
Precursor m/z: 324.2887
Precursor type: [M+H]+
Precursor intensity: 21120.63
m/z	relative intensity
95.0839	999
96.0868	149
97.0987	138
99.045	92
105.0684	108
109.0981	137
109.1564	77
112.0841	69
113.0948	69
123.1137	89
151.1474	96
155.1364	69
163.1468	103
245.2259	161
264.2345	135
306.2781	206
307.263	341
308.2663	199
324.288	380
