Mass spectrum: 6-Hydroxydopamine; ESI-TOF; MS2; CE: 6.0000000;  [M+H]+
Name: 6-Hydroxydopamine
Class: NA
Formula: C8H11NO3
Exact mass: 169.07389
SMILES: NCCC1=C(O)C=C(O)C(O)=C1
InChI: InChI=1S/C8H11NO3/c9-2-1-5-3-7(11)8(12)4-6(5)10/h3-4,10-12H,1-2,9H2
Instrument: waters xevo g2 TOF
Instrument type: ESI-TOF
Ms type: MS2
Ion mode: POSITIVE
Ionization: ESI
Collision energy: 6.0000000
Column name: Acquity CSHC18
Retention time: 0.537 min
Base peak: 170.08189
Precursor m/z: 170.08189
Precursor type: [M+H]+
m/z	relative intensity
83.0503	3
107.0499	18
108.0531	1
113.9644	30
123.0716	6
124.076	1
125.0604	2
134.0606	2
135.0453	53
136.0481	3
137.0556	2
139.0395	329
140.0436	30
141.0452	2
151.0396	999
152.0711	472
153.1212	828
154.2634	229
155.0602	53
156.0633	3
159.9068	1
164.0715	3
165.0551	8
166.0867	31
167.0708	256
168.067	26
169.0728	4
170.0822	365
171.0848	37
172.0376	9
