Mass spectrum: Fluprostenol; ESI-TOF; MS2; CE: 6.0000000;  [M+H]+
Name: Fluprostenol
Class: NA
Formula: C23H29F3O6
Exact mass: 458.19162
SMILES: C1C(C(C(C1O)C=CC(COC2=CC=CC(=C2)C(F)(F)F)O)CC=CCCCC(=O)O)O
InChI: InChI=1S/C23H29F3O6/c24-23(25,26)15-6-5-7-17(12-15)32-14-16(27)10-11-19-18(20(28)13-21(19)29)8-3-1-2-4-9-22(30)31/h1,3,5-7,10-12,16,18-21,27-29H,2,4,8-9,13-14H2,(H,30,31)
Instrument: waters xevo g2 TOF
Instrument type: ESI-TOF
Ms type: MS2
Ion mode: POSITIVE
Ionization: ESI
Collision energy: 6.0000000
Column name: Acquity CSHC18
Retention time: 3.739 min
Base peak: 459.19962
Precursor m/z: 459.19962
Precursor type: [M+H]+
m/z	relative intensity
93.0703	5
117.0712	27
119.0858	17
131.0861	25
133.0662	13
141.0698	7
142.9642	9
145.1025	32
147.1179	31
155.0848	15
157.1021	18
159.0817	24
161.0974	61
169.1015	18
171.1167	32
175.1142	4
179.1061	13
181.1018	39
183.1176	52
184.1256	2
187.1277	8
189.1291	121
190.1313	11
191.106	8
197.1323	76
199.1127	43
201.0731	10
205.1274	7
207.1271	152
208.1378	20
209.117	6
210.0612	31
215.1434	50
217.1225	93
219.1021	38
225.1277	223
226.13	33
229.071	63
233.1529	42
243.1375	544
244.1417	89
245.1507	38
261.1482	437
262.1515	74
279.1599	999
280.1615	171
281.1647	17
293.1721	23
299.0839	1
422.0771	57
423.1743	24
434.0846	10
440.0847	35
448.6672	10
452.0903	10
458.1615	4
