Mass spectrum: Sorbitol; LC-ESI-ITFT; MS2; CE: 10;  [M-H]-
Name: Sorbitol
Class: Organic oxygen compounds; Organooxygen compounds; Carbohydrates and carbohydrate conjugates
Formula: C6H14O6
Exact mass: 182.07904
SMILES: OC[C@H](O)[C@@H](O)[C@H](O)[C@H](O)CO
InChI: InChI=1S/C6H14O6/c7-1-3(9)5(11)6(12)4(10)2-8/h3-12H,1-2H2/t3-,4+,5-,6-/m1/s1
Instrument: Thermo Scientific Q-Exactive Focus
Instrument type: LC-ESI-ITFT
Ms type: MS2
Ion mode: NEGATIVE
Ionization: ESI
Collision energy: 10
Column name: Acquity CSHC18
Retention time: 0.363 min
Base peak: 181.07176
Precursor m/z: 181.07176
Precursor type: [M-H]-
m/z	relative intensity
59.0127	185
71.0127	211
73.0283	104
85.0283	45
89.0232	300
101.0232	309
113.0233	45
119.0338	65
163.0602	62
181.071	999
