Mass spectrum: L-Tryptophan; LC-ESI-ITFT; MS2; CE: 60;  [M-H]-
Name: L-Tryptophan
Class: Organoheterocyclic compounds; Indoles and derivatives; Indolyl carboxylic acids and derivatives
Formula: C11H12N2O2
Exact mass: 204.08988
SMILES: N[C@@H](CC1=CNC2=C1C=CC=C2)C(O)=O
InChI: InChI=1S/C11H12N2O2/c12-9(11(14)15)5-7-6-13-10-4-2-1-3-8(7)10/h1-4,6,9,13H,5,12H2,(H,14,15)/t9-/m0/s1
Instrument: Thermo Scientific Q-Exactive Focus
Instrument type: LC-ESI-ITFT
Ms type: MS2
Ion mode: NEGATIVE
Ionization: ESI
Collision energy: 60
Column name: Acquity CSHC18
Retention time: 1.767 min
Base peak: 203.08260
Precursor m/z: 203.08260
Precursor type: [M-H]-
m/z	relative intensity
59.074	381
79.349	360
97.289	375
116.0494	999
157.6548	383
169.477	379
171.2457	348
179.0332	384
204.0093	352
205.1955	438
