Mass spectrum: 1-oleoyl-2-palmitoyl-sn-glycero-3-phosphocholine; ESI-TOF; MS2; CE: 0.6458333;  [M+H]+
Name: 1-oleoyl-2-palmitoyl-sn-glycero-3-phosphocholine
Class: NA
Formula: C42H82NO8P
Exact mass: 759.57781
SMILES: [H]C(=C([H])C([H])([H])C([H])([H])C([H])([H])C([H])([H])C([H])([H])C([H])([H])C([H])([H])C([H])([H])[H])C([H])([H])C([H])([H])C([H])([H])C([H])([H])C([H])([H])C([H])([H])C([H])([H])C(=O)OC([H])([H])C([H])(OC(=O)C([H])([H])C([H])([H])C([H])([H])C([H])([H])C([H])([H])C([H])([H])C([H])([H])C([H])([H])C([H])([H])C([H])([H])C([H])([H])C([H])([H])C([H])([H])C([H])([H])C([H])([H])[H])C([H])([H])OP(=O)([O-])OC([H])([H])C([H])([H])[N+](C([H])([H])[H])(C([H])([H])[H])C([H])([H])[H]
InChI: InChI=1S/C42H82NO8P/c1-6-8-10-12-14-16-18-20-21-23-24-26-28-30-32-34-41(44)48-38-40(39-50-52(46,47)49-37-36-43(3,4)5)51-42(45)35-33-31-29-27-25-22-19-17-15-13-11-9-7-2/h20-21,40H,6-19,22-39H2,1-5H3
Instrument: waters xevo g2 TOF
Instrument type: ESI-TOF
Ms type: MS2
Ion mode: POSITIVE
Ionization: ESI
Collision energy: 0.6458333
Column name: Acquity CSHC18
Retention time: 11.190 min
Base peak: 760.58581
Precursor m/z: 760.58581
Precursor type: [M+H]+
m/z	relative intensity
86.0974	24
125.0008	7
146.9826	3
163.016	14
181.0258	2
184.0738	999
185.077	63
186.0791	9
214.918	2
295.1951	119
296.1983	18
321.2112	14
322.2136	3
419.2544	4
445.2718	10
478.3295	101
479.3325	13
480.3385	1
491.304	1
504.3448	188
505.3485	23
506.3499	3
522.3575	3
538.3968	1
577.5197	34
578.5202	10
579.5232	2
599.5006	7
600.5033	6
638.4299	11
638.9332	3
639.4315	3
651.433	2
651.9377	1
723.494	17
724.4973	8
725.4985	2
760.5841	613
761.5881	300
