Mass spectrum: Anthrone; LC-ESI-QTOF; MS2; CE: 35.00;  [2M+Na]+
Name: Anthrone
Class: NA
Formula: C14H10O
Exact mass: 194.0732
SMILES: C1C2=CC=CC=C2C(=O)C3=CC=CC=C31
InChI: InChI=1S/C14H10O/c15-14-12-7-3-1-5-10(12)9-11-6-2-4-8-13(11)14/h1-8H,9H2
Instrument: Bruker MicrOTOF-Q
Instrument type: LC-ESI-QTOF
Ms type: MS2
Ion mode: POSITIVE
Ionization: ESI
Collision energy: 35.00
Column name: Acquity CSHC18
Retention time: NA
Base peak: 411.1357
Precursor m/z: 411.1357
Precursor type: [2M+Na]+
m/z	relative intensity
117.0182	33
135.0264	128
144.0313	150
153.0377	216
155.0406	28
165.0688	166
166.0724	33
177.0716	202
178.0738	66
193.0646	700
194.0715	698
195.0794	798
196.081	119
213.5475	54
214.0538	62
215.5619	42
216.0637	312
216.5649	132
217.0627	759
218.0618	112
221.0532	159
222.0567	26
222.5555	51
222.655	30
223.0604	137
224.0698	29
224.5763	54
225.0675	180
225.5666	98
231.5585	522
232.0627	999
232.5629	177
233.0258	224
234.0283	33
240.5637	129
241.0698	623
241.5735	88
242.0715	58
243.5696	30
249.0058	32
251.0364	324
252.0387	64
255.0586	52
256.0348	25
265.0147	195
269.0473	180
270.0483	71
283.0259	256
284.0236	44
287.0579	107
301.0338	83
302.0377	41
