Mass spectrum: ANILINE-2-SULFONATE; LC-ESI-QFT; MS2; CE: 30eV;  [M+H]+
Name: ANILINE-2-SULFONATE
Class: NA
Formula: C6H7NO3S
Exact mass: 173.01466
SMILES: C1=CC=C(C(=C1)N)S(=O)(=O)O
InChI: InChI=1S/C6H7NO3S/c7-5-3-1-2-4-6(5)11(8,9)10/h1-4H,7H2,(H,8,9,10)
Instrument: Q-Exactive Orbitrap, Thermo Scientfic; Ultimate 3000 HPLC, Thermo Scientfic
Instrument type: LC-ESI-QFT
Ms type: MS2
Ion mode: POSITIVE
Ionization: ESI
Collision energy: 30eV
Column name: Acquity CSHC18
Retention time: 0.803 min
Base peak: 174.0219
Precursor m/z: 174.0219
Precursor type: [M+H]+
Precursor intensity: 189
m/z	relative intensity
65.0135	1
65.0393	28
72.0816	7
80.0503	8
84.0451	1
84.0816	1
85.0482	1
92.0502	999
93.0473	2
93.0535	33
100.1129	3
103.0592	1
108.045	227
109.0484	8
110.0607	13
112.9766	2
130.0504	1
131.0539	8
132.0546	1
134.9249	1
155.0041	2
156.0118	62
156.1385	1
157.0153	3
173.0146	6
174.0224	884
174.1495	2
175.0103	1
175.0261	30
