Mass spectrum: Capric acid; LC-ESI-QTOF; MS2; CE: 15.00;  [M+H]+
Name: Capric acid
Class: NA
Formula: C10H20O2
Exact mass: 172.1463
SMILES: CCCCCCCCCC(=O)O
InChI: InChI=1S/C10H20O2/c1-2-3-4-5-6-7-8-9-10(11)12/h2-9H2,1H3,(H,11,12)
Instrument: Bruker MicrOTOF-Q
Instrument type: LC-ESI-QTOF
Ms type: MS2
Ion mode: POSITIVE
Ionization: ESI
Collision energy: 15.00
Column name: Acquity CSHC18
Retention time: NA
Base peak: 173.1536
Precursor m/z: 173.1536
Precursor type: [M+H]+
m/z	relative intensity
117.0923	431
131.926	549
135.117	504
173.1568	999
