Mass spectrum: Ribitol; ESI-TOF; MS2; CE: 6.0000000;  [M+H]+
Name: Ribitol
Class: NA
Formula: C5H12O5
Exact mass: 152.06847
SMILES: OCC(O)C(O)C(O)CO
InChI: InChI=1S/C5H12O5/c6-1-3(8)5(10)4(9)2-7/h3-10H,1-2H2
Instrument: waters xevo g2 TOF
Instrument type: ESI-TOF
Ms type: MS2
Ion mode: POSITIVE
Ionization: ESI
Collision energy: 6.0000000
Column name: Acquity CSHC18
Retention time: 0.564 min
Base peak: 153.07647
Precursor m/z: 153.07647
Precursor type: [M+H]+
m/z	relative intensity
69.0347	78
71.0502	39
73.0292	14
81.0342	18
83.0082	8
87.0445	3
96.9618	58
99.0448	708
100.0482	40
112.991	1
114.9714	16
115.9639	1
117.0381	999
118.0588	57
127.9602	11
128.9869	5
130.9661	4
131.9513	31
133.0383	1
135.066	627
136.0693	35
140.0131	11
141.0318	39
148.0364	1
149.0187	16
150.0182	14
153.0764	187
154.0396	6
155.012	9
