Mass spectrum: L-TRYPTOPHANAMIDE; LC-ESI-QFT; MS2; CE: 30eV;  [M+H]+
Name: L-TRYPTOPHANAMIDE
Class: NA
Formula: C11H13N3O
Exact mass: 203.10586
SMILES: NC(CC1=CNC2=CC=CC=C12)C(N)=O
InChI: InChI=1S/C11H13N3O/c12-9(11(13)15)5-7-6-14-10-4-2-1-3-8(7)10/h1-4,6,9,14H,5,12H2,(H2,13,15)
Instrument: Q-Exactive Orbitrap, Thermo Scientfic; Ultimate 3000 HPLC, Thermo Scientfic
Instrument type: LC-ESI-QFT
Ms type: MS2
Ion mode: POSITIVE
Ionization: ESI
Collision energy: 30eV
Column name: Acquity CSHC18
Retention time: 2.194 min
Base peak: 204.1131
Precursor m/z: 204.1131
Precursor type: [M+H]+
Precursor intensity: 146
m/z	relative intensity
50.0179	3
54.1758	3
55.0186	5
73.0403	18
75.8071	3
85.2592	3
88.0786	3
89.1773	2
89.8131	3
99.4047	3
115.0545	16
115.0661	3
116.3543	3
117.0573	6
117.0704	4
125.5407	4
130.0654	109
132.081	386
133.0762	6
133.0843	18
142.0654	31
143.0728	3
144.0809	999
145.0762	631
145.0841	43
146.0795	29
149.0242	4
158.0831	4
160.076	13
160.0889	15
160.095	223
163.9409	5
170.0602	189
171.3811	3
181.9505	3
188.0823	8
188.0901	159
204.1133	110
