Mass spectrum: D-Galactose; ESI-TOF; MS2; CE: 6.0000000;  [M+H]+
Name: D-Galactose
Class: NA
Formula: C6H12O6
Exact mass: 180.06339
SMILES: OCC1OC(O)C(O)C(O)C1O
InChI: InChI=1S/C6H12O6/c7-1-2-3(8)4(9)5(10)6(11)12-2/h2-11H,1H2
Instrument: waters xevo g2 TOF
Instrument type: ESI-TOF
Ms type: MS2
Ion mode: POSITIVE
Ionization: ESI
Collision energy: 6.0000000
Column name: Acquity CSHC18
Retention time: 0.556 min
Base peak: 181.07139
Precursor m/z: 181.07139
Precursor type: [M+H]+
m/z	relative intensity
85.029	89
91.0397	28
96.9616	52
97.0291	71
127.0396	88
137.9663	332
145.05	87
163.0603	91
169.0066	16
187.0792	55
198.0982	44
200.0449	76
200.5466	10
203.0531	999
215.9736	42
233.0239	11
261.9784	82
287.8902	9
290.0806	16
292.0082	25
294.0043	490
297.0118	21
303.0022	8
325.113	14
367.1477	14
383.116	79
414.0463	50
415.0516	38
