Mass spectrum: Alpha-Hydroxyisobutyric acid; LC-ESI-ITFT; MS2; CE: 100;  [M-H]-
Name: Alpha-Hydroxyisobutyric acid
Class: Organic acids and derivatives; Hydroxy acids and derivatives; Alpha hydroxy acids and derivatives
Formula: C4H8O3
Exact mass: 104.04734
SMILES: CC(C)(O)C(O)=O
InChI: InChI=1S/C4H8O3/c1-4(2,7)3(5)6/h7H,1-2H3,(H,5,6)
Instrument: Thermo Scientific Q-Exactive Focus
Instrument type: LC-ESI-ITFT
Ms type: MS2
Ion mode: NEGATIVE
Ionization: ESI
Collision energy: 100
Column name: Acquity CSHC18
Retention time: 2.586 min
Base peak: 103.04007
Precursor m/z: 103.04007
Precursor type: [M-H]-
m/z	relative intensity
59.6602	916
76.8163	967
81.3578	899
89.4427	872
104.4433	952
105.0485	968
112.337	997
113.7704	999
118.1654	998
124.0206	875
