Mass spectrum: Kaempferol 3-O-sophoroside-2; LC-ESI-QTOF; MS2; CE: 50eV;  [M-H]-
Name: Kaempferol 3-O-sophoroside-2
Class: Flavonol
Formula: C27H30O16
Exact mass: 610.1534
SMILES: C1=CC(=CC=C1C2=C(C(=O)C3=C(C=C(C=C3O2)O)O)OC4C(C(C(C(O4)CO)O)O)OC5C(C(C(C(O5)CO)O)O)O)O
InChI: InChI=1S/C27H30O16/c28-7-14-17(33)20(36)22(38)26(40-14)43-25-21(37)18(34)15(8-29)41-27(25)42-24-19(35)16-12(32)5-11(31)6-13(16)39-23(24)9-1-3-10(30)4-2-9/h1-6,14-15,17-18,20-22,25-34,36-38H,7-8H2
Instrument: TIMS-TOF Pro, Bruker Daltonik; Elute UHPLC System, Bruker Daltonik
Instrument type: LC-ESI-QTOF
Ms type: MS2
Ion mode: NEGATIVE
Ionization: ESI
Collision energy: 50eV
Column name: Acquity CSHC18
Retention time: 5.020 min
Base peak: 609.1458
Precursor m/z: 609.1458
Precursor type: [M-H]-
Precursor intensity: 1726.81
m/z	relative intensity
285.0326	75
609.138	999
