Mass spectrum: Pyridoxine; LC-ESI-ITFT; MS2; CE: 20;  [M+H]+
Name: Pyridoxine
Class: Organoheterocyclic compounds; Pyridines and derivatives; Pyridoxines
Formula: C8H11NO3
Exact mass: 169.07389
SMILES: CC1=C(O)C(CO)=C(CO)C=N1
InChI: InChI=1S/C8H11NO3/c1-5-8(12)7(4-11)6(3-10)2-9-5/h2,10-12H,3-4H2,1H3
Instrument: Thermo Scientific Q-Exactive Focus
Instrument type: LC-ESI-ITFT
Ms type: MS2
Ion mode: POSITIVE
Ionization: ESI
Collision energy: 20
Column name: Acquity CSHC18
Retention time: 0.630 min
Base peak: 170.08118
Precursor m/z: 170.08118
Precursor type: [M+H]+
m/z	relative intensity
79.0547	19
81.0577	9
94.0656	8
95.0495	7
96.0811	17
106.0655	21
123.068	12
124.0758	78
134.0602	999
152.0706	400
