Mass spectrum: Procyanidin trimer C1; LC-ESI-QFT; MS2; CE: NCE_15_30_65;  [M-H]-
Name: Procyanidin trimer C1
Class: NA
Formula: C45H38O18
Exact mass: 866.2058
SMILES: C1C(C(OC2=C1C(=CC(=C2C3C(C(OC4=C(C(=CC(=C34)O)O)C5C(C(OC6=CC(=CC(=C56)O)O)C7=CC(=C(C=C7)O)O)O)C8=CC(=C(C=C8)O)O)O)O)O)C9=CC(=C(C=C9)O)O)O
InChI: InChI=1S/C45H38O18/c46-18-10-27(54)33-32(11-18)61-42(16-2-5-21(48)25(52)8-16)39(59)37(33)35-29(56)14-30(57)36-38(40(60)43(63-45(35)36)17-3-6-22(49)26(53)9-17)34-28(55)13-23(50)19-12-31(58)41(62-44(19)34)15-1-4-20(47)24(51)7-15/h1-11,13-14,31,37-43,46-60H,12H2
Instrument: Thermo_Qexactive_Plus
Instrument type: LC-ESI-QFT
Ms type: MS2
Ion mode: NEGATIVE
Ionization: ESI
Collision energy: NCE_15_30_65
Column name: Acquity CSHC18
Retention time: 3.881 min
Base peak: 865.2001
Precursor m/z: 865.2001
Precursor type: [M-H]-
Precursor intensity: 98286640
m/z	relative intensity
63.5636	17
63.9557	17
70.8209	18
83.0127	18
109.0279	18
123.044	19
125.023	19
126.0261	20
133.0274	20
137.0234	20
149.024	20
150.0316	21
151.0425	21
159.043	21
161.0337	21
163.0209	21
164.0107	22
165.018	22
167.0342	22
175.0442	23
177.0188	23
179.0345	23
187.0402	24
188.0475	24
191.0362	24
198.2783	24
199.0406	24
203.0529	24
205.0344	24
215.0717	25
217.0506	25
219.0429	25
229.049	26
230.0568	26
231.0297	26
241.0519	26
243.0445	27
244.0345	27
245.0647	28
247.0618	28
255.0312	29
256.0401	29
257.0457	29
259.0607	29
261.0419	29
269.0467	29
271.0459	31
273.0407	31
281.0465	32
282.0188	33
283.0255	33
284.0307	34
285.0414	36
287.0558	37
288.0595	38
289.0755	38
290.0734	39
293.0506	40
297.0426	43
298.0454	44
299.0551	44
309.3712	44
315.088	44
327.0661	45
329.0669	47
330.0771	47
331.0833	48
337.0688	49
339.088	49
341.0688	49
356.1947	50
363.0511	51
381.0977	52
383.0777	53
387.0518	54
391.0441	54
395.0758	56
405.0581	58
406.9334	60
407.0884	64
408.0843	64
413.0875	66
414.0965	67
419.0765	70
423.0749	71
424.0764	72
425.0876	75
449.0903	76
450.0945	96
451.1005	98
525.0854	98
533.1063	111
543.0943	115
557.1174	121
561.1051	122
575.1352	134
576.1249	135
577.1364	143
578.1435	145
587.1259	149
588.1137	174
598.5592	177
619.1464	192
695.1484	204
696.1494	218
713.1522	263
714.1573	292
739.1696	306
740.1723	411
763.8162	416
847.1931	432
865.2168	999
