Mass spectrum: Geranyl diphosphate; LC-ESI-QTOF; MS2; CE: -10, -35, -60V;  [M-H]-
Name: Geranyl diphosphate
Class: NA
Formula: C10H20O7P2
Exact mass: 314.0684
SMILES: CC(=CCCC(=CCOP(=O)(O)OP(=O)(O)O)C)C
InChI: InChI=1S/C10H20O7P2/c1-9(2)5-4-6-10(3)7-8-16-19(14,15)17-18(11,12)13/h5,7H,4,6,8H2,1-3H3,(H,14,15)(H2,11,12,13)
Instrument: TripleToF 5600; Sciex
Instrument type: LC-ESI-QTOF
Ms type: MS2
Ion mode: NEGATIVE
Ionization: ESI
Collision energy: -10, -35, -60V
Column name: Acquity CSHC18
Retention time: 17.978 min
Base peak: 313.0636
Precursor m/z: 313.0636
Precursor type: [M-H]-
Precursor intensity: 35916.63
m/z	relative intensity
78.9594	573
158.9264	33
224.2047	9
295.0516	42
296.19	43
297.1967	18
298.2051	36
298.2806	27
310.2029	12
313.0638	999
