Mass spectrum: DEOXYADENOSINE; LC-ESI-QFT; MS2; CE: 30eV;  [M-H]-
Name: DEOXYADENOSINE
Class: NA
Formula: C10H13N5O3
Exact mass: 251.10184
SMILES: NC1=NC=NC2=C1N=CN2[C@H]1C[C@H](O)[C@@H](CO)O1
InChI: InChI=1S/C10H13N5O3/c11-9-8-10(13-3-12-9)15(4-14-8)7-1-5(17)6(2-16)18-7/h3-7,16-17H,1-2H2,(H2,11,12,13)/t5-,6+,7+/m0/s1
Instrument: Q-Exactive Orbitrap, Thermo Scientfic; Ultimate 3000 HPLC, Thermo Scientfic
Instrument type: LC-ESI-QFT
Ms type: MS2
Ion mode: NEGATIVE
Ionization: ESI
Collision energy: 30eV
Column name: Acquity CSHC18
Retention time: 1.268 min
Base peak: 250.0946
Precursor m/z: 250.0946
Precursor type: [M-H]-
Precursor intensity: 127
m/z	relative intensity
52.8765	387
55.6429	393
72.5729	443
75.0804	455
79.5246	523
87.9959	533
96.71	469
134.0458	999
170.4798	563
210.7652	562
219.5254	545
244.2789	529
