Mass spectrum: Quinolinic acid; LC-ESI-ITFT; MS2; CE: 20;  [M+H]+
Name: Quinolinic acid
Class: Organoheterocyclic compounds; Pyridines and derivatives; Pyridinecarboxylic acids and derivatives
Formula: C7H5NO4
Exact mass: 167.02186
SMILES: OC(=O)C1=CC=CN=C1C(O)=O
InChI: InChI=1S/C7H5NO4/c9-6(10)4-2-1-3-8-5(4)7(11)12/h1-3H,(H,9,10)(H,11,12)
Instrument: Thermo Scientific Q-Exactive Focus
Instrument type: LC-ESI-ITFT
Ms type: MS2
Ion mode: POSITIVE
Ionization: ESI
Collision energy: 20
Column name: Acquity CSHC18
Retention time: 0.632 min
Base peak: 168.02913
Precursor m/z: 168.02913
Precursor type: [M+H]+
m/z	relative intensity
68.05	39
78.0343	184
80.0499	95
84.0448	6
96.0448	999
112.0396	106
122.0239	37
124.0395	503
140.0343	76
150.0186	56
