Mass spectrum: Arginine; LC-ESI-QTOF; MS2; CE: 15 / 50;  [M-H]-
Name: Arginine
Class: NA
Formula: C6H14N4O2
Exact mass: 174.1117
SMILES: C(CC(C(=O)O)N)CN=C(N)N
InChI: InChI=1S/C6H14N4O2/c7-4(5(11)12)2-1-3-10-6(8)9/h4H,1-3,7H2,(H,11,12)(H4,8,9,10)
Instrument: impact II
Instrument type: LC-ESI-QTOF
Ms type: MS2
Ion mode: NEGATIVE
Ionization: ESI
Collision energy: 15 / 50
Column name: Acquity CSHC18
Retention time: 0.702 min
Base peak: 173.1046
Precursor m/z: 173.1046
Precursor type: [M-H]-
m/z	relative intensity
83.0612	5
112.0881	10
113.0715	8
114.0564	8
131.0826	999
131.0956	20
132.0858	71
156.0782	15
173.1044	15
