Mass spectrum: Naringenin-7-O-glucoside; LC-ESI-QTOF; MS2; CE: 20-40eV;  [M+H]+
Name: Naringenin-7-O-glucoside
Class: flavonoid
Formula: C21H22O10
Exact mass: 434.1213
SMILES: C=1C=C(C=CC1C2(CC(C3=C(C=C(C=C3O2)OC4(C(C(C(C(CO)(O4)[H])(O)[H])(O)[H])(O)[H])[H])O)=O)[H])O
InChI: InChI=1S/C21H22O10/c22-8-16-18(26)19(27)20(28)21(31-16)29-11-5-12(24)17-13(25)7-14(30-15(17)6-11)9-1-3-10(23)4-2-9/h1-6,14,16,18-24,26-28H,7-8H2
Instrument: Impact II, Bruker; Dionex 3000, Thermo Scientific
Instrument type: LC-ESI-QTOF
Ms type: MS2
Ion mode: POSITIVE
Ionization: ESI
Collision energy: 20-40eV
Column name: Acquity CSHC18
Retention time: 5.535 min
Base peak: 435.1267
Precursor m/z: 435.1267
Precursor type: [M+H]+
Precursor intensity: 2309.75
m/z	relative intensity
139.0326	31
147.0428	165
153.0175	269
161.0633	31
271.0601	999
272.0614	312
273.0755	482
274.0786	129
399.3062	30
