Mass spectrum: 15(R)-15-methyl Prostaglandin F2-alpha methyl ester; ESI-TOF; MS2; CE: 0.6458333;  [M+H]+
Name: 15(R)-15-methyl Prostaglandin F2-alpha methyl ester
Class: NA
Formula: C22H38O5
Exact mass: 382.27192
SMILES: CCCCCC(C)(C=CC1C(CC(C1CC=CCCCC(=O)OC)O)O)O
InChI: InChI=1S/C22H38O5/c1-4-5-10-14-22(2,26)15-13-18-17(19(23)16-20(18)24)11-8-6-7-9-12-21(25)27-3/h6,8,13,15,17-20,23-24,26H,4-5,7,9-12,14,16H2,1-3H3
Instrument: waters xevo g2 TOF
Instrument type: ESI-TOF
Ms type: MS2
Ion mode: POSITIVE
Ionization: ESI
Collision energy: 0.6458333
Column name: Acquity CSHC18
Retention time: 4.093 min
Base peak: 383.27992
Precursor m/z: 383.27992
Precursor type: [M+H]+
m/z	relative intensity
67.055	109
79.0545	241
81.0696	429
91.054	236
105.0713	442
107.0866	342
119.0861	430
121.1012	307
129.0694	588
131.0856	810
133.102	314
143.0852	499
145.1019	614
147.116	211
149.0961	277
157.1018	788
161.0991	224
167.0838	123
169.1004	140
171.1162	373
173.096	153
175.1114	351
181.1107	187
183.1167	270
185.0973	472
187.1491	163
189.164	82
199.1119	331
217.1227	196
223.1066	171
241.1627	93
255.2089	204
271.2057	84
279.2195	257
297.2208	414
298.2247	100
303.2322	160
329.2482	862
330.251	146
343.132	177
346.1593	311
353.1716	98
359.1862	999
361.1758	103
371.2398	230
375.1635	728
378.1651	113
384.2375	157
