Mass spectrum: 3-Phenoxybenzoic acid; LC-ESI-ITFT; MS2; CE: 20;  [M-H]-
Name: 3-Phenoxybenzoic acid
Class: Benzenoids; Benzene and substituted derivatives; Diphenylethers
Formula: C13H10O3
Exact mass: 214.06299
SMILES: OC(=O)C1=CC(OC2=CC=CC=C2)=CC=C1
InChI: InChI=1S/C13H10O3/c14-13(15)10-5-4-8-12(9-10)16-11-6-2-1-3-7-11/h1-9H,(H,14,15)
Instrument: Thermo Scientific Q-Exactive Focus
Instrument type: LC-ESI-ITFT
Ms type: MS2
Ion mode: NEGATIVE
Ionization: ESI
Collision energy: 20
Column name: Acquity CSHC18
Retention time: 0.643 min
Base peak: 213.05573
Precursor m/z: 213.05573
Precursor type: [M-H]-
m/z	relative intensity
93.0334	999
169.065	27
197.9912	2
213.0554	5
