Mass spectrum: Harmane; LC-ESI-QTOF; MS2; CE: 15;  [M-H]-
Name: Harmane
Class: NA
Formula: C12H10N2
Exact mass: 182.0844
SMILES: CC1=NC=CC2=C1NC3=CC=CC=C23
InChI: InChI=1S/C12H10N2/c1-8-12-10(6-7-13-8)9-4-2-3-5-11(9)14-12/h2-7,14H,1H3
Instrument: Bruker MicrOTOF-Q
Instrument type: LC-ESI-QTOF
Ms type: MS2
Ion mode: NEGATIVE
Ionization: ESI
Collision energy: 15
Column name: Acquity CSHC18
Retention time: NA
Base peak: 181.0771
Precursor m/z: 181.0771
Precursor type: [M-H]-
m/z	relative intensity
47.8912	9
51.6816	7
53.3037	6
55.503	5
58.16	8
63.5569	8
71.0347	7
75.029	7
78.2018	8
81.4719	9
83.1529	9
85.0235	8
87.0631	7
90.7963	7
93.1931	6
94.0782	6
94.7195	7
95.9627	9
97.4399	7
98.8572	7
100.603	7
102.1677	7
104.491	8
106.9405	7
108.1926	7
109.3974	6
110.6676	8
111.9087	9
112.6385	11
113.7735	8
116.2124	7
120.0062	8
123.3698	7
125.7426	6
127.7715	6
128.9435	9
130.3123	11
131.1727	7
132.252	7
134.266	7
138.2891	22
141.2213	18
142.4068	8
143.9653	6
145.357	9
147.6148	8
149.3976	8
151.1114	8
153.2542	34
155.696	11
157.873	8
159.83	9
161.8961	8
166.9023	45
170.9016	9
171.6157	4
172.5581	10
173.5633	5
175.4038	6
176.6121	8
178.3605	7
182.2045	999
186.4513	6
187.3205	5
188.022	5
188.6231	9
189.1962	5
198.0393	18
198.9047	5
210.4891	4
212.0579	369
213.0614	71
230.6959	9
281.1731	9
