Mass spectrum: 11-beta-Prostaglandin E2; ESI-TOF; MS2; CE: 0.6458333;  [M+H]+
Name: 11-beta-Prostaglandin E2
Class: NA
Formula: C20H32O5
Exact mass: 352.22497
SMILES: O=C1[C@H](C/C=C\CCCC(O)=O)[C@@H](/C=C/[C@@H](O)CCCCC)[C@@H](O)C1
InChI: InChI=1S/C20H32O5/c1-2-3-6-9-15(21)12-13-17-16(18(22)14-19(17)23)10-7-4-5-8-11-20(24)25/h4,7,12-13,15-17,19,21,23H,2-3,5-6,8-11,14H2,1H3,(H,24,25)/b7-4-,13-12+/t15-,16+,17+,19-/m0/s1
Instrument: waters xevo g2 TOF
Instrument type: ESI-TOF
Ms type: MS2
Ion mode: POSITIVE
Ionization: ESI
Collision energy: 0.6458333
Column name: Acquity CSHC18
Retention time: 3.609 min
Base peak: 353.23297
Precursor m/z: 353.23297
Precursor type: [M+H]+
m/z	relative intensity
79.0545	339
81.07	324
91.0549	797
93.0703	438
105.0704	850
107.0492	171
109.1004	126
117.0712	614
121.066	208
129.071	560
131.0862	999
132.0876	93
133.0661	183
135.0812	164
141.0692	409
142.0761	143
143.0847	384
145.1	650
147.1169	218
149.0593	92
155.0863	677
157.1023	583
159.0804	483
161.1324	232
167.0711	120
169.1001	473
170.1048	97
171.1158	408
173.0963	457
181.1015	159
183.1174	528
185.0999	244
189.0905	17
191.1413	17
201.1255	249
206.0019	283
207.1014	17
215.1428	364
225.1267	145
227.1784	199
229.1573	93
233.1514	41
239.1809	146
245.189	179
246.1928	17
247.2068	17
255.1746	220
257.189	17
262.0612	104
263.1879	155
264.1998	17
266.2154	17
271.2031	293
273.1852	17
275.1992	48
281.1892	639
282.1972	17
289.2134	17
291.1944	17
299.2004	939
300.2057	134
303.1595	425
317.2109	17
318.17	51
319.2177	17
331.2234	17
335.2219	17
336.2258	17
337.2284	17
354.1949	17
354.6954	17
355.1745	103
