Mass spectrum: Nicotinuric acid; LC-ESI-ITFT; MS2; CE: 10;  [M-H]-
Name: Nicotinuric acid
Class: Organic acids and derivatives; Carboxylic acids and derivatives; Amino acids, peptides, and analogues
Formula: C8H8N2O3
Exact mass: 180.05349
SMILES: OC(=O)CNC(=O)C1=CN=CC=C1
InChI: InChI=1S/C8H8N2O3/c11-7(12)5-10-8(13)6-2-1-3-9-4-6/h1-4H,5H2,(H,10,13)(H,11,12)
Instrument: Thermo Scientific Q-Exactive Focus
Instrument type: LC-ESI-ITFT
Ms type: MS2
Ion mode: NEGATIVE
Ionization: ESI
Collision energy: 10
Column name: Acquity CSHC18
Retention time: 0.361 min
Base peak: 179.04622
Precursor m/z: 179.04622
Precursor type: [M-H]-
m/z	relative intensity
78.0336	32
103.0289	14
108.0443	33
122.0236	16
133.0396	45
134.9868	5
135.0553	999
149.0345	16
166.0373	7
179.0453	531
