Mass spectrum: ononin; LC-ESI-ITFT; MS2; CE: 0.3;  [M+HCOOH-H]-
Name: ononin
Class: isoflavones
Formula: C22H22O9
Exact mass: 430.1264
SMILES: COC1=CC=C(C=C1)C2=COC3=C(C2=O)C=CC(=C3)OC4C(C(C(C(O4)CO)O)O)O
InChI: InChI=1S/C22H22O9/c1-28-12-4-2-11(3-5-12)15-10-29-16-8-13(6-7-14(16)18(15)24)30-22-21(27)20(26)19(25)17(9-23)31-22/h2-8,10,17,19-23,25-27H,9H2,1H3
Instrument: LTQ-Orbitrap XL hybrid mass spectrometer (Thermo Scientific)
Instrument type: LC-ESI-ITFT
Ms type: MS2
Ion mode: NEGATIVE
Ionization: ESI
Collision energy: 0.3
Column name: Acquity CSHC18
Retention time: 6.831 min
Base peak: 475.1239
Precursor m/z: 475.1239
Precursor type: [M+HCOOH-H]-
Precursor intensity: 10871620
m/z	relative intensity
129.0778	1
135.5171	1
138.3663	1
139.1267	1
164.6801	1
167.0122	2
175.5762	1
180.7403	1
187.3179	1
198.4105	1
199.1158	1
199.6345	1
202.6064	1
209.3556	1
209.7356	1
211.3553	1
211.616	1
212.5654	1
220.0419	1
221.0462	1
228.0626	1
228.9584	1
237.2752	1
246.7552	1
250.8238	1
252.0419	7
259.8149	1
261.3851	2
266.8074	2
266.8164	1
266.8597	1
266.8707	1
266.8855	2
266.8986	2
266.9116	2
266.9253	3
266.9388	3
266.9493	2
266.9646	3
266.9771	4
266.9916	6
267.0034	5
267.0163	5
267.0656	999
267.1122	4
267.1209	4
267.136	5
267.1486	4
267.1606	3
267.1744	3
267.1885	3
267.2024	3
267.2265	2
267.2423	2
267.269	2
268.0692	13
268.9786	1
278.6562	1
285.346	1
286.4312	1
293.8962	1
294.2345	1
301.1248	1
317.1412	2
321.3324	1
338.895	1
339.1257	2
343.9659	2
344.4445	2
347.2439	1
349.0236	2
349.3038	2
351.2508	1
365.0613	1
365.223	1
372.3207	2
372.4654	2
373.1988	2
376.2528	2
379.0712	1
384.9954	2
387.452	2
390.4606	2
393.2655	2
393.6178	2
399.1145	1
402.0827	2
406.0151	1
412.4608	1
415.6318	1
416.2712	2
418.3826	2
423.7592	2
425.8966	2
426.298	2
428.4676	2
429.1177	36
430.191	2
430.7935	1
435.2499	1
441.2634	1
446.3371	2
450.0256	1
450.3306	1
450.7162	2
453.1432	1
456.2272	2
459.3323	1
462.0229	1
464.8319	1
468.4058	2
470.8522	2
472.4486	2
473.3126	1
474.1256	2
474.9569	2
