Mass spectrum: Matairesinol; LC-ESI-ITFT; MS2; CE: 20;  [M+H]+
Name: Matairesinol
Class: Lignans, neolignans and related compounds; Furanoid lignans; Tetrahydrofuran lignans
Formula: C20H22O6
Exact mass: 358.14164
SMILES: COC1=CC(CC2C(CC3=CC(OC)=C(O)C=C3)COC2=O)=CC=C1O
InChI: InChI=1S/C20H22O6/c1-24-18-9-12(3-5-16(18)21)7-14-11-26-20(23)15(14)8-13-4-6-17(22)19(10-13)25-2/h3-6,9-10,14-15,21-22H,7-8,11H2,1-2H3
Instrument: Thermo Scientific Q-Exactive Focus
Instrument type: LC-ESI-ITFT
Ms type: MS2
Ion mode: POSITIVE
Ionization: ESI
Collision energy: 20
Column name: Acquity CSHC18
Retention time: 0.634 min
Base peak: 359.14890
Precursor m/z: 359.14890
Precursor type: [M+H]+
m/z	relative intensity
131.0491	102
137.0597	999
163.0751	95
165.0544	24
259.0748	18
263.1062	53
291.101	112
305.1166	34
323.1273	50
341.1377	20
