Mass spectrum: Esculin; LC-ESI-QTOF; MS2; CE: 35;  [M-H]-
Name: Esculin
Class: NA
Formula: C15H16O9
Exact mass: 340.0794
SMILES: C1=CC(=O)OC2=CC(=C(C=C21)OC3C(C(C(C(O3)CO)O)O)O)O
InChI: InChI=1S/C15H16O9/c16-5-10-12(19)13(20)14(21)15(24-10)23-9-3-6-1-2-11(18)22-8(6)4-7(9)17/h1-4,10,12-17,19-21H,5H2
Instrument: Bruker MicrOTOF-Q
Instrument type: LC-ESI-QTOF
Ms type: MS2
Ion mode: NEGATIVE
Ionization: ESI
Collision energy: 35
Column name: Acquity CSHC18
Retention time: NA
Base peak: 339.0716
Precursor m/z: 339.0716
Precursor type: [M-H]-
m/z	relative intensity
89.0356	32
104.0273	21
105.0333	90
109.0296	25
120.0252	22
121.0303	22
133.0292	628
134.0333	44
148.0176	65
149.0237	68
176.0117	55
177.0195	999
178.0228	82
