Mass spectrum: Vitexin 2''-acetate; LC-ESI-QTOF; MS2; CE: 20-40eV;  [M+H]+
Name: Vitexin 2''-acetate
Class: Flavonoid C- glycosides
Formula: C23H22O11
Exact mass: 474.1162
SMILES: CC(=O)OC1(C(C(C(CO)(OC1(C2=C(C=C(C=3C(C=C(C4=CC=C(C=C4)O)OC32)=O)O)O)[H])[H])(O)[H])(O)[H])[H]
InChI: InChI=1S/C23H22O11/c1-9(25)32-23-20(31)19(30)16(8-24)34-22(23)18-13(28)6-12(27)17-14(29)7-15(33-21(17)18)10-2-4-11(26)5-3-10/h2-7,16,19-20,22-24,26-28,30-31H,8H2,1H3
Instrument: Impact II, Bruker; Dionex 3000, Thermo Scientific
Instrument type: LC-ESI-QTOF
Ms type: MS2
Ion mode: POSITIVE
Ionization: ESI
Collision energy: 20-40eV
Column name: Acquity CSHC18
Retention time: 5.549 min
Base peak: 475.1238
Precursor m/z: 475.1238
Precursor type: [M+H]+
Precursor intensity: 294179.8
m/z	relative intensity
243.0484	6
297.0584	9
323.074	11
324.0796	19
475.0966	23
475.2518	999
