Mass spectrum: 3-Methylhistidine; LC-ESI-ITFT; MS2; CE: 10;  [M+H]+
Name: 3-Methylhistidine
Class: Organic acids and derivatives; Carboxylic acids and derivatives; Amino acids, peptides, and analogues
Formula: C7H11N3O2
Exact mass: 169.08513
SMILES: CN1C=NC=C1C[C@H](N)C(O)=O
InChI: InChI=1S/C7H11N3O2/c1-10-4-9-3-5(10)2-6(8)7(11)12/h3-4,6H,2,8H2,1H3,(H,11,12)/t6-/m0/s1
Instrument: Thermo Scientific Q-Exactive Focus
Instrument type: LC-ESI-ITFT
Ms type: MS2
Ion mode: POSITIVE
Ionization: ESI
Collision energy: 10
Column name: Acquity CSHC18
Retention time: 0.348 min
Base peak: 170.09241
Precursor m/z: 170.09241
Precursor type: [M+H]+
m/z	relative intensity
59.0609	12
83.0607	14
95.0606	16
96.0684	220
97.0762	68
109.0762	285
125.0709	31
126.1026	202
153.0657	37
170.0922	999
