Mass spectrum: Cholesterol; LC-ESI-QTOF; MS2; CE: 60;  [M-H2O+H]+
Name: Cholesterol
Class: NA
Formula: C27H46O
Exact mass: 386.35487
SMILES: CC(C)CCCC(C)C1CCC2C1(CCC3C2CC=C4C3(CCC(C4)O)C)C
InChI: InChI=1S/C27H46O/c1-18(2)7-6-8-19(3)23-11-12-24-22-10-9-20-17-21(28)13-15-26(20,4)25(22)14-16-27(23,24)5/h9,18-19,21-25,28H,6-8,10-17H2,1-5H3
Instrument: impact II
Instrument type: LC-ESI-QTOF
Ms type: MS2
Ion mode: POSITIVE
Ionization: ESI
Collision energy: 60
Column name: Acquity CSHC18
Retention time: 1.681 min
Base peak: 369.35180
Precursor m/z: 369.35180
Precursor type: [M-H2O+H]+
m/z	relative intensity
55.0548	104
57.0704	110
67.0551	140
69.0705	142
77.0386	157
79.0546	158
81.0702	164
83.086	169
91.0544	174
93.0701	309
95.0857	345
105.07	368
107.0855	377
109.1012	390
117.0697	442
119.0855	518
121.1013	586
131.0854	627
133.1012	652
135.1167	701
145.1013	857
147.1168	889
159.1164	963
161.1324	999
