Mass spectrum: [3,4,5-trihydroxy-6-(2,3,4-trihydroxybutoxy)oxan-2-yl]methyl 3-(3-hydroxy-4-methoxyphenyl)prop-2-enoate; LC-ESI-QTOF; MS2; CE: 20-40eV;  [M+NH4]+
Name: [3,4,5-trihydroxy-6-(2,3,4-trihydroxybutoxy)oxan-2-yl]methyl 3-(3-hydroxy-4-methoxyphenyl)prop-2-enoate
Class: Hydroxycinnamic acids and derivatives
Formula: C20H28O12
Exact mass: 460.1581
SMILES: COC=1C=CC(C=CC(=O)OCC2C(C(C(C(OCC(C(CO)O)O)O2)O)O)O)=CC1O
InChI: InChI=1S/C20H28O12/c1-29-14-4-2-10(6-11(14)22)3-5-16(25)30-9-15-17(26)18(27)19(28)20(32-15)31-8-13(24)12(23)7-21/h2-6,12-13,15,17-24,26-28H,7-9H2,1H3
Instrument: Impact II, Bruker; Dionex 3000, Thermo Scientific
Instrument type: LC-ESI-QTOF
Ms type: MS2
Ion mode: POSITIVE
Ionization: ESI
Collision energy: 20-40eV
Column name: Acquity CSHC18
Retention time: 3.950 min
Base peak: 478.1914
Precursor m/z: 478.1914
Precursor type: [M+NH4]+
Precursor intensity: 37859.75
m/z	relative intensity
177.0784	7
177.4652	28
299.1283	999
