Mass spectrum: 4-Methoxyglucobrassicin; LC-ESI-QTOF; MS2; CE: 22.43;  [M-O3S+H]+
Name: 4-Methoxyglucobrassicin
Class: NA
Formula: C17H22N2O10S2
Exact mass: 478.0716
SMILES: COC1=CC=CC2=C1C(=CN2)CC(=NOS(=O)(=O)O)SC3C(C(C(C(O3)CO)O)O)O
InChI: InChI=1S/C17H22N2O10S2/c1-27-10-4-2-3-9-13(10)8(6-18-9)5-12(19-29-31(24,25)26)30-17-16(23)15(22)14(21)11(7-20)28-17/h2-4,6,11,14-18,20-23H,5,7H2,1H3,(H,24,25,26)
Instrument: Bruker MicrOTOF-Q
Instrument type: LC-ESI-QTOF
Ms type: MS2
Ion mode: POSITIVE
Ionization: ESI
Collision energy: 22.43
Column name: Acquity CSHC18
Retention time: NA
Base peak: 399.1220
Precursor m/z: 399.1220
Precursor type: [M-O3S+H]+
m/z	relative intensity
130.0631	17
147.0674	18
160.0754	20
161.079	22
162.0562	23
179.0396	24
186.0784	66
187.0827	71
192.0477	76
203.0406	107
204.0469	108
205.0486	112
219.0588	122
220.0622	160
237.0691	185
238.0718	999
