Mass spectrum: acyl sugar_S4:17 (2,5,5,5); LC-ESI-ITFT; MS2; CE: 35 NCE;  [M+FA-H]-
Name: acyl sugar_S4:17 (2,5,5,5)
Class: acyl sugar
Formula: C29H48O15
Exact mass: 636.2993
SMILES: CCC(C)C(=O)OC1C(C(OC(C1OC(=O)C)OC2(C(C(C(O2)CO)O)OC(=O)CC(C)C)CO)CO)OC(=O)CC(C)C
InChI: InChI=1S/C29H48O15/c1-8-16(6)27(37)42-24-23(40-20(34)9-14(2)3)19(12-31)39-28(25(24)38-17(7)33)44-29(13-32)26(22(36)18(11-30)43-29)41-21(35)10-15(4)5/h14-16,18-19,22-26,28,30-32,36H,8-13H2,1-7H3
Instrument: LTQ Orbitrap XL, Thermo Scientfic; Aquity (U)HPLC, Waters
Instrument type: LC-ESI-ITFT
Ms type: MS2
Ion mode: NEGATIVE
Ionization: ESI
Collision energy: 35 NCE
Column name: Acquity CSHC18
Retention time: 27.739 min
Base peak: 681.2993
Precursor m/z: 681.2993
Precursor type: [M+FA-H]-
Precursor intensity: 2046803
m/z	relative intensity
323.0988	8
389.1446	13
467.1783	71
509.2249	999
533.2245	22
551.2355	718
587.4804	6
612.3765	7
681.2986	31
