Mass spectrum: 16:0 DG; ESI-TOF; MS2; CE: 0.6458333;  [M+H]+
Name: 16:0 DG
Class: NA
Formula: C35H68O5
Exact mass: 568.50668
SMILES: [H]OC([H])([H])C([H])(OC(=O)C([H])([H])C([H])([H])C([H])([H])C([H])([H])C([H])([H])C([H])([H])C([H])([H])C([H])([H])C([H])([H])C([H])([H])C([H])([H])C([H])([H])C([H])([H])C([H])([H])C([H])([H])[H])C([H])([H])OC(=O)C([H])([H])C([H])([H])C([H])([H])C([H])([H])C([H])([H])C([H])([H])C([H])([H])C([H])([H])C([H])([H])C([H])([H])C([H])([H])C([H])([H])C([H])([H])C([H])([H])C([H])([H])[H]
InChI: InChI=1S/C35H68O5/c1-3-5-7-9-11-13-15-17-19-21-23-25-27-29-34(37)39-32-33(31-36)40-35(38)30-28-26-24-22-20-18-16-14-12-10-8-6-4-2/h33,36H,3-32H2,1-2H3
Instrument: waters xevo g2 TOF
Instrument type: ESI-TOF
Ms type: MS2
Ion mode: POSITIVE
Ionization: ESI
Collision energy: 0.6458333
Column name: Acquity CSHC18
Retention time: 12.084 min
Base peak: 569.51468
Precursor m/z: 569.51468
Precursor type: [M+H]+
m/z	relative intensity
57.0713	15
71.0863	60
81.0706	71
83.0867	71
85.1017	91
95.0861	151
97.1018	55
109.1017	99
111.1157	11
123.1172	60
125.1345	15
131.0018	17
137.1326	21
143.0157	10
184.0755	37
239.2375	138
240.2403	20
257.2479	18
283.0504	9
295.195	303
296.198	34
311.1674	26
313.2739	595
314.2768	70
335.2511	9
369.2302	14
380.2003	7
385.2035	41
386.201	9
551.5034	999
552.5073	401
567.4324	10
