Mass spectrum: Myricetin 3,7,3',4'-tetramethyl ether; LC-ESI-QTOF; MS2; CE: 50eV;  [M-H]-
Name: Myricetin 3,7,3',4'-tetramethyl ether
Class: Flavonol
Formula: C19H18O8
Exact mass: 374.1002
SMILES: COC1=CC(=C2C(=C1)OC(=C(C2=O)OC)C3=CC(=C(C(=C3)OC)OC)O)O
InChI: InChI=1S/C19H18O8/c1-23-10-7-11(20)15-13(8-10)27-17(19(26-4)16(15)22)9-5-12(21)18(25-3)14(6-9)24-2/h5-8,20-21H,1-4H3
Instrument: TIMS-TOF Pro, Bruker Daltonik; Elute UHPLC System, Bruker Daltonik
Instrument type: LC-ESI-QTOF
Ms type: MS2
Ion mode: NEGATIVE
Ionization: ESI
Collision energy: 50eV
Column name: Acquity CSHC18
Retention time: 9.714 min
Base peak: 373.0880
Precursor m/z: 373.0880
Precursor type: [M-H]-
Precursor intensity: 232650.6
m/z	relative intensity
49.0076	2
65.0022	4
68.9962	2
95.0128	4
104.1826	2
117.0335	2
121.0261	2
124.0139	3
128.0372	2
130.7598	3
133.7171	2
134.4675	2
140.6399	2
149.0378	2
151.0018	2
152.4955	2
161.9948	9
165.017	30
167.6075	2
169.0251	6
172.615	3
173.1727	3
174.7615	2
175.2392	3
178.2198	5
179.8486	3
181.0686	2
182.2374	4
183.2797	2
184.8842	5
186.0351	4
187.0386	3
188.0427	4
189.0169	2
190.0958	3
190.7638	5
193.0201	2
196.1278	2
197.0231	7
198.0336	2
201.018	10
201.3513	2
201.6781	4
202.9969	3
206.9087	3
211.715	3
213.0155	11
214.0247	2
216.0432	4
217.0548	4
219.6153	2
223.3156	2
225.0295	2
228.041	6
229.0135	10
230.0168	2
235.5788	2
241.0089	4
242.0209	3
244.034	4
256.0329	9
257.0027	5
258.0122	2
267.9997	3
269.9987	2
272.0311	2
283.0233	6
285.0003	8
286.0073	6
297.0011	1
299.0535	3
300.025	9
301.0336	2
311.0071	3
312.0257	2
313.032	4
315.0465	5
317.7671	2
328.0575	2
329.0664	9
330.0625	3
342.2208	2
343.0058	368
343.2059	2
343.2979	4
343.4177	3
343.5813	3
343.8415	2
343.9897	60
344.1486	2
344.2436	2
345.0442	14
345.1291	2
345.683	2
346.0525	2
356.4541	2
357.0616	6
357.6309	3
357.8516	1
358.038	999
358.2066	2
358.332	3
358.4842	3
358.643	6
358.7917	3
358.9486	3
359.0696	294
359.3236	2
359.4611	2
359.5448	1
359.7391	3
359.8498	2
360.0712	21
360.3884	2
372.7592	2
373.088	636
373.2662	3
373.3987	2
373.481	2
373.5663	2
