Mass spectrum: 3,4-Dihydroxymandelic acid; LC-ESI-ITFT; MS2; CE: 20;  [M-H]-
Name: 3,4-Dihydroxymandelic acid
Class: Benzenoids; Phenols; Benzenediols
Formula: C8H8O5
Exact mass: 184.03717
SMILES: OC(C(O)=O)C1=CC=C(O)C(O)=C1
InChI: InChI=1S/C8H8O5/c9-5-2-1-4(3-6(5)10)7(11)8(12)13/h1-3,7,9-11H,(H,12,13)
Instrument: Thermo Scientific Q-Exactive Focus
Instrument type: LC-ESI-ITFT
Ms type: MS2
Ion mode: NEGATIVE
Ionization: ESI
Collision energy: 20
Column name: Acquity CSHC18
Retention time: 0.643 min
Base peak: 183.02991
Precursor m/z: 183.02991
Precursor type: [M-H]-
m/z	relative intensity
65.0384	74
72.9919	5
85.3865	3
93.0333	133
109.0283	31
121.0283	199
136.0155	11
137.0232	999
139.0389	163
165.0183	24
