Mass spectrum: trans-Ferulic acid; ESI-TOF; MS2; CE: 6.0000000;  [M+H]+
Name: trans-Ferulic acid
Class: NA
Formula: C10H10O4
Exact mass: 194.05791
SMILES: COC1=C(O)C=CC(C=CC(O)=O)=C1
InChI: InChI=1S/C10H10O4/c1-14-9-6-7(2-4-8(9)11)3-5-10(12)13/h2-6,11H,1H3,(H,12,13)
Instrument: waters xevo g2 TOF
Instrument type: ESI-TOF
Ms type: MS2
Ion mode: POSITIVE
Ionization: ESI
Collision energy: 6.0000000
Column name: Acquity CSHC18
Retention time: 2.241 min
Base peak: 195.06591
Precursor m/z: 195.06591
Precursor type: [M+H]+
m/z	relative intensity
89.0394	5
117.0341	71
118.0378	6
123.0451	4
125.0601	11
133.0291	11
134.0369	4
135.0096	1
137.0605	11
143.0604	13
145.029	411
146.0327	46
147.0414	10
149.0603	53
150.0649	10
151.0575	4
153.0554	24
158.0614	1
161.0406	15
162.032	7
163.0394	30
165.0555	6
175.0291	28
176.0783	3
177.1655	999
178.1135	336
179.0645	23
186.0556	79
187.0574	6
193.0504	19
194.0299	13
195.0658	349
196.0692	43
200.0371	1
201.0556	22
202.0603	32
203.0632	2
207.0669	3
209.0843	1
210.0918	8
211.0273	1
215.0323	13
216.0389	15
217.0007	44
218.0214	4
219.0704	87
220.0693	17
225.0613	2
226.143	1
233.0126	8
237.0509	8
239.0316	1
245.0396	4
246.0229	7
247.0582	42
248.0618	5
250.0281	6
251.9721	1
257.099	4
259.1128	1
263.0702	8
265.0865	23
266.0889	4
271.0984	43
273.0423	1
274.0439	6
277.0136	1
278.9911	7
280.0392	3
281.0466	3
283.1062	1
290.0112	14
291.0315	1
292.042	3
293.0298	1
293.9833	25
295.042	2
297.1122	61
303.0521	2
309.0467	3
311.572	2
313.1078	8
314.1166	2
319.0949	39
320.0965	9
323.0923	53
324.0423	1
325.1068	164
326.1108	10
333.0372	1
337.0725	5
340.0948	8
341.1026	445
342.1085	254
343.1157	136
344.1202	21
351.0874	28
352.0901	5
355.084	7
359.1126	2
363.0847	37
364.0912	48
365.1002	52
366.0637	5
367.0802	9
369.0982	16
373.1281	4
374.13	2
381.0644	2
383.1497	6
384.1493	1
385.0912	5
387.1056	16
388.116	1
393.097	4
395.1071	25
396.0716	2
406.0837	1
407.0757	14
407.5923	3
408.05	3
408.5994	2
409.0445	57
410.0488	11
411.097	10
413.0871	12
425.0788	1
427.0731	26
428.1068	13
429.1407	2
433.1351	1
439.0711	1
440.0389	5
441.1158	15
442.0772	56
443.0401	78
444.0824	9
445.045	28
446.0471	4
447.0396	12
449.1123	27
450.1158	5
457.0852	3
459.1893	4
460.1035	1
465.0852	19
467.0852	9
468.0958	3
469.086	4
474.0616	4
475.0645	1
477.0665	1
483.0626	3
484.0686	5
486.0706	5
489.1098	1
496.1027	9
497.1079	3
503.1136	5
503.6108	1
504.1213	1
533.144	2
535.1605	17
536.1616	4
557.1424	19
558.1452	2
575.1259	11
577.135	3
589.1648	13
590.1288	13
591.0919	4
593.0951	2
599.1335	3
601.133	2
605.1457	12
606.1518	4
607.1412	32
608.1436	9
609.1447	1
619.1114	20
620.1153	7
621.1247	67
622.131	22
623.1327	7
627.1509	2
629.1795	2
632.0856	1
634.0862	10
636.0938	98
637.0962	76
638.1007	20
639.1215	8
641.1038	1
658.1351	11
659.1409	3
721.043	1
752.205	1
767.1671	2
770.1878	1
792.1833	1
793.1857	1
795.1891	11
796.1931	9
797.1951	2
812.1613	1
813.1681	9
815.1805	7
826.1426	1
828.1357	7
829.1376	2
884.0707	1
