Mass spectrum: Paeonol, 2'-Hydroxy-4'-methoxyacetophenone; LC-ESI-QTOF; MS2; CE: 15.00;  [M+H]+
Name: Paeonol, 2'-Hydroxy-4'-methoxyacetophenone
Class: NA
Formula: C9H10O3
Exact mass: 166.0630
SMILES: CC(=O)C1=C(C=C(C=C1)OC)O
InChI: InChI=1S/C9H10O3/c1-6(10)8-4-3-7(12-2)5-9(8)11/h3-5,11H,1-2H3
Instrument: Bruker MicrOTOF-Q
Instrument type: LC-ESI-QTOF
Ms type: MS2
Ion mode: POSITIVE
Ionization: ESI
Collision energy: 15.00
Column name: Acquity CSHC18
Retention time: NA
Base peak: 167.0703
Precursor m/z: 167.0703
Precursor type: [M+H]+
m/z	relative intensity
110.0358	12
118.0497	1
121.0646	667
121.4516	1
122.0679	53
124.0515	4
125.0594	162
126.0635	11
134.035	8
148.9847	3
149.0597	873
149.205	1
149.853	1
150.0633	68
151.0392	7
152.0469	2
166.9569	1
167.0699	999
167.3798	1
167.4872	1
168.0733	101
169.0815	4
