Mass spectrum: Quercetin 3-galactoside; LC-ESI-QTOF; MS2; CE: 50eV;  [M+H]+
Name: Quercetin 3-galactoside
Class: Flavonol
Formula: C21H20O12
Exact mass: 464.0955
SMILES: C1=CC(=C(C=C1C2=C(C(=O)C3=C(C=C(C=C3O2)O)O)OC4C(C(C(C(O4)CO)O)O)O)O)O
InChI: InChI=1S/C21H20O12/c22-6-13-15(27)17(29)18(30)21(32-13)33-20-16(28)14-11(26)4-8(23)5-12(14)31-19(20)7-1-2-9(24)10(25)3-7/h1-5,13,15,17-18,21-27,29-30H,6H2
Instrument: TIMS-TOF Pro, Bruker Daltonik; Elute UHPLC System, Bruker Daltonik
Instrument type: LC-ESI-QTOF
Ms type: MS2
Ion mode: POSITIVE
Ionization: ESI
Collision energy: 50eV
Column name: Acquity CSHC18
Retention time: 5.150 min
Base peak: 465.1007
Precursor m/z: 465.1007
Precursor type: [M+H]+
Precursor intensity: 51456.56
m/z	relative intensity
35.6216	1
61.0164	1
61.0288	22
69.0319	1
85.0283	11
87.0444	1
91.0386	11
97.029	11
109.0282	1
115.038	2
133.0267	1
137.0161	1
137.0217	4
145.0477	7
153.0174	6
162.7266	1
165.0177	6
197.5699	1
215.0313	1
227.0391	1
229.0469	3
238.8996	1
257.0428	6
260.3834	1
274.0479	1
285.0403	2
302.9304	1
302.9856	6
303.0188	27
303.0464	999
303.3282	2
303.541	6
303.5686	8
303.7566	1
304.0249	3
304.0498	102
304.3514	1
305.0244	1
305.0549	6
306.0617	1
