Mass spectrum: GUANIDINOSUCCINATE; LC-ESI-QFT; MS2; CE: 30eV;  [M+H]+
Name: GUANIDINOSUCCINATE
Class: NA
Formula: C5H9N3O4
Exact mass: 175.05931
SMILES: NC(=N)N[C@@H](CC(O)=O)C(O)=O
InChI: InChI=1S/C5H9N3O4/c6-5(7)8-2(4(11)12)1-3(9)10/h2H,1H2,(H,9,10)(H,11,12)(H4,6,7,8)/t2-/m0/s1
Instrument: Q-Exactive Orbitrap, Thermo Scientfic; Ultimate 3000 HPLC, Thermo Scientfic
Instrument type: LC-ESI-QFT
Ms type: MS2
Ion mode: POSITIVE
Ionization: ESI
Collision energy: 30eV
Column name: Acquity CSHC18
Retention time: 0.554 min
Base peak: 176.0666
Precursor m/z: 176.0666
Precursor type: [M+H]+
Precursor intensity: 168
m/z	relative intensity
55.216	6
74.0373	13
86.0539	27
99.014	31
113.045	39
116.0405	49
117.0286	50
131.0553	53
131.9811	88
148.9972	131
153.9472	137
159.0502	220
176.9789	640
177.0672	999
