Mass spectrum: Quercetin 4'-glucoside; LC-ESI-QTOF; MS2; CE: 50eV;  [M-H]-
Name: Quercetin 4'-glucoside
Class: Flavonol
Formula: C21H20O12
Exact mass: 464.0955
SMILES: C1=CC(=C(C=C1C2=C(C(=O)C3=C(C=C(C=C3O2)O)O)O)O)OC4C(C(C(C(O4)CO)O)O)O
InChI: InChI=1S/C21H20O12/c22-6-13-15(26)17(28)19(30)21(33-13)32-11-2-1-7(3-9(11)24)20-18(29)16(27)14-10(25)4-8(23)5-12(14)31-20/h1-5,13,15,17,19,21-26,28-30H,6H2
Instrument: TIMS-TOF Pro, Bruker Daltonik; Elute UHPLC System, Bruker Daltonik
Instrument type: LC-ESI-QTOF
Ms type: MS2
Ion mode: NEGATIVE
Ionization: ESI
Collision energy: 50eV
Column name: Acquity CSHC18
Retention time: 5.639 min
Base peak: 463.0835
Precursor m/z: 463.0835
Precursor type: [M-H]-
Precursor intensity: 206945.6
m/z	relative intensity
44.7736	3
56.981	3
65.0016	9
66.0059	2
83.0111	1
90.4827	1
96.5613	3
107.0124	72
107.3061	1
108.0162	2
109.028	5
110.9827	2
113.2382	3
121.027	55
121.5636	2
122.8535	1
145.4113	3
147.0415	4
148.0163	5
149.0213	8
150.4935	4
151.0007	208
151.1654	1
151.2721	1
151.4835	2
152.006	20
153.0068	2
154.0403	1
159.8574	3
163.0006	7
164.0066	2
169.2023	1
171.4411	4
178.9981	36
179.3738	1
179.9381	4
188.0521	2
190.8908	3
195.0436	2
203.0335	2
215.3051	1
219.9174	1
229.666	3
236.2477	3
297.0368	1
300.0226	8
300.8725	2
301.0312	999
301.1707	2
301.2692	3
301.3869	1
301.5211	4
301.6908	4
301.8196	2
301.9196	2
302.036	90
302.4033	2
302.5322	1
302.8339	2
303.0343	7
303.4873	1
310.7238	1
463.0801	48
