Mass spectrum: Jasmonic acid; LC-ESI-QTOF; MS2; CE: 50eV;  [M-H]-
Name: Jasmonic acid
Class: Fatty acid derivative
Formula: C12H18O3
Exact mass: 210.1256
SMILES: CCC=CCC1C(CCC1=O)CC(=O)O
InChI: InChI=1S/C12H18O3/c1-2-3-4-5-10-9(8-12(14)15)6-7-11(10)13/h3-4,9-10H,2,5-8H2,1H3,(H,14,15)
Instrument: TIMS-TOF Pro, Bruker Daltonik; Elute UHPLC System, Bruker Daltonik
Instrument type: LC-ESI-QTOF
Ms type: MS2
Ion mode: NEGATIVE
Ionization: ESI
Collision energy: 50eV
Column name: Acquity CSHC18
Retention time: 7.415 min
Base peak: 209.1140
Precursor m/z: 209.1140
Precursor type: [M-H]-
Precursor intensity: 10730.06
m/z	relative intensity
41.0024	999
59.0115	397
80.0247	394
