Mass spectrum: Enterolactone; LC-ESI-ITFT; MS2; CE: 60;  [M-H]-
Name: Enterolactone
Class: Lignans, neolignans and related compounds; Furanoid lignans; Tetrahydrofuran lignans
Formula: C18H18O4
Exact mass: 298.12051
SMILES: OC1=CC=CC(CC2COC(=O)C2CC2=CC(O)=CC=C2)=C1
InChI: InChI=1S/C18H18O4/c19-15-5-1-3-12(8-15)7-14-11-22-18(21)17(14)10-13-4-2-6-16(20)9-13/h1-6,8-9,14,17,19-20H,7,10-11H2
Instrument: Thermo Scientific Q-Exactive Focus
Instrument type: LC-ESI-ITFT
Ms type: MS2
Ion mode: NEGATIVE
Ionization: ESI
Collision energy: 60
Column name: Acquity CSHC18
Retention time: 2.032 min
Base peak: 297.11322
Precursor m/z: 297.11322
Precursor type: [M-H]-
m/z	relative intensity
65.0384	339
79.054	113
107.049	999
108.0204	91
119.049	677
121.0283	605
130.0412	187
131.049	184
133.0646	90
143.0491	300
