Mass spectrum: 18:1 SM (d18:1/18:1(9Z)); ESI-TOF; MS2; CE: 6.0000000;  [M+H]+
Name: 18:1 SM (d18:1/18:1(9Z))
Class: NA
Formula: C41H81N2O6P
Exact mass: 728.58322
SMILES: [H]OC([H])(C([H])=C([H])C([H])([H])C([H])([H])C([H])([H])C([H])([H])C([H])([H])C([H])([H])C([H])([H])C([H])([H])C([H])([H])C([H])([H])C([H])([H])C([H])([H])C([H])([H])[H])C([H])(N([H])C(=O)C([H])([H])C([H])([H])C([H])([H])C([H])([H])C([H])([H])C([H])([H])C([H])([H])C([H])=C([H])C([H])([H])C([H])([H])C([H])([H])C([H])([H])C([H])([H])C([H])([H])C([H])([H])C([H])([H])[H])C([H])([H])OP(=O)([O-])OC([H])([H])C([H])([H])[N+](C([H])([H])[H])(C([H])([H])[H])C([H])([H])[H]
InChI: InChI=1S/C41H81N2O6P/c1-6-8-10-12-14-16-18-20-21-23-25-27-29-31-33-35-41(45)42-39(38-49-50(46,47)48-37-36-43(3,4)5)40(44)34-32-30-28-26-24-22-19-17-15-13-11-9-7-2/h20-21,32,34,39-40,44H,6-19,22-31,33,35-38H2,1-5H3,(H-,42,45,46,47)
Instrument: waters xevo g2 TOF
Instrument type: ESI-TOF
Ms type: MS2
Ion mode: POSITIVE
Ionization: ESI
Collision energy: 6.0000000
Column name: Acquity CSHC18
Retention time: 10.870 min
Base peak: 729.59122
Precursor m/z: 729.59122
Precursor type: [M+H]+
m/z	relative intensity
161.0271	5
184.0738	70
185.0777	2
193.5922	3
264.2682	5
297.6985	2
331.215	14
348.2256	2
361.2073	8
375.2684	5
376.2722	10
376.7874	5
377.2828	6
382.7528	3
383.2539	29
383.754	27
384.2726	999
384.7751	462
385.2755	128
385.7784	23
386.2698	11
386.9724	5
392.2591	98
392.7619	46
393.2606	64
393.7612	8
394.7597	9
395.2576	2
426.25	26
426.7498	11
427.2482	2
434.2354	10
434.7408	4
450.2431	2
512.195	13
517.2678	4
518.3543	2
537.3956	13
544.8749	13
557.8812	2
558.449	2
569.381	17
570.3844	7
571.4103	1
593.4003	4
605.3127	2
613.3469	3
614.3433	4
619.4078	1
621.3308	2
641.4763	44
641.9775	35
642.4776	7
642.9791	2
649.4621	3
657.3476	2
729.591	920
730.5943	873
