Mass spectrum: 15(S)-15-methyl Prostaglandin D2; ESI-TOF; MS2; CE: 0.6458333;  [M+H]+
Name: 15(S)-15-methyl Prostaglandin D2
Class: NA
Formula: C21H34O5
Exact mass: 366.24062
SMILES: CCCCC[C@](C)(O)\C=C\[C@H]1C(=O)CC(O)C1C/C=C\CCCC(=O)O
InChI: InChI=1S/C21H34O5/c1-3-4-9-13-21(2,26)14-12-17-16(18(22)15-19(17)23)10-7-5-6-8-11-20(24)25/h5,7,12,14,16-18,22,26H,3-4,6,8-11,13,15H2,1-2H3,(H,24,25)/b7-5-,14-12+/t16?,17-,18?,21+/m1/s1
Instrument: waters xevo g2 TOF
Instrument type: ESI-TOF
Ms type: MS2
Ion mode: POSITIVE
Ionization: ESI
Collision energy: 0.6458333
Column name: Acquity CSHC18
Retention time: 3.747 min
Base peak: 367.24862
Precursor m/z: 367.24862
Precursor type: [M+H]+
m/z	relative intensity
67.0547	77
85.0625	33
95.0864	205
97.1021	169
105.071	441
106.0754	27
109.1043	135
111.0817	44
121.1008	191
131.0863	655
133.1018	264
135.0821	184
137.0603	36
139.9935	43
145.1018	672
149.0972	193
165.0232	154
172.1224	33
173.0972	359
174.1013	50
175.1119	185
177.1601	41
179.1448	44
181.1004	99
182.0023	201
184.1212	36
185.0957	239
186.0996	40
187.1492	282
189.0872	40
195.012	28
199.1141	149
201.1636	162
203.143	322
204.1466	55
207.1057	120
211.1473	293
213.1644	109
215.1068	176
217.1233	48
219.1167	44
221.1442	156
223.0286	107
229.1598	320
231.1399	60
233.1504	28
248.1718	71
258.0722	40
277.1954	250
281.0818	45
285.2175	144
289.2184	37
295.2054	380
296.207	57
313.2166	999
314.219	211
331.2275	795
332.2312	174
353.204	32
369.1922	123
