Mass spectrum: cudraflavone B; LC-ESI-ITFT; MS2; CE: 0.3;  [M-H]-
Name: cudraflavone B
Class: flavones
Formula: C25H24O6
Exact mass: 420.1573
SMILES: CC(=CCC1=C(OC2=CC3=C(C=CC(O3)(C)C)C(=C2C1=O)O)C4=C(C=C(C=C4)O)O)C
InChI: InChI=1S/C25H24O6/c1-13(2)5-7-17-23(29)21-20(30-24(17)15-8-6-14(26)11-18(15)27)12-19-16(22(21)28)9-10-25(3,4)31-19/h5-6,8-12,26-28H,7H2,1-4H3
Instrument: LTQ-Orbitrap XL hybrid mass spectrometer (Thermo Scientific)
Instrument type: LC-ESI-ITFT
Ms type: MS2
Ion mode: NEGATIVE
Ionization: ESI
Collision energy: 0.3
Column name: Acquity CSHC18
Retention time: 15.500 min
Base peak: 419.1500
Precursor m/z: 419.1500
Precursor type: [M-H]-
Precursor intensity: 9689515
m/z	relative intensity
121.03	18
133.1903	1
136.5843	1
147.0823	4
157.7823	1
162.6252	1
167.1303	6
173.0615	1
191.0717	39
197.7179	2
211.0411	2
214.027	1
217.0505	6
223.1974	1
227.0715	30
241.0512	5
257.0827	1
267.1027	1
269.0818	7
279.3972	1
283.1321	1
287.1313	3
293.0823	3
293.4395	1
294.0878	2
294.8981	3
295.6355	2
295.9264	1
296.7638	1
296.7808	1
296.8264	2
296.856	2
296.8715	2
296.8854	1
296.902	2
296.9175	2
296.9337	3
296.9469	2
296.9643	3
296.9793	3
296.995	4
297.0104	4
297.0256	5
297.0415	5
297.0538	4
297.1133	999
297.1666	4
297.1802	5
297.1951	5
297.2114	5
297.2262	4
297.2417	3
297.2564	3
297.2726	3
297.2893	3
297.3029	2
297.3198	2
297.3347	2
297.3489	1
297.3668	2
297.3798	1
297.4294	2
297.4428	1
297.4909	1
297.8628	2
298.1157	7
300.5576	1
300.8623	1
301.6204	1
306.0886	2
307.0579	1
307.0976	4
309.0746	8
309.1134	149
310.1199	8
311.0938	5
319.0981	1
321.0769	6
322.0847	21
324.2161	4
333.0772	9
335.0559	58
336.649	1
348.1961	1
349.0732	4
349.145	8
350.0797	312
351.0853	14
354.0732	1
357.152	1
375.1602	41
377.1376	4
401.1402	18
404.125	2
