Mass spectrum: 15(S)-Latanoprost; ESI-TOF; MS2; CE: 6.0000000;  [M+H]+
Name: 15(S)-Latanoprost
Class: NA
Formula: C26H40O5
Exact mass: 432.28757
SMILES: O[C@@H]1[C@H](C/C=C\CCCC(OC(C)C)=O)[C@@H](CC[C@H](O)CCC2=CC=CC=C2)[C@H](O)C1
InChI: InChI=1S/C26H40O5/c1-19(2)31-26(30)13-9-4-3-8-12-22-23(25(29)18-24(22)28)17-16-21(27)15-14-20-10-6-5-7-11-20/h3,5-8,10-11,19,21-25,27-29H,4,9,12-18H2,1-2H3/b8-3-/t21-,22-,23-,24+,25-/m1/s1
Instrument: waters xevo g2 TOF
Instrument type: ESI-TOF
Ms type: MS2
Ion mode: POSITIVE
Ionization: ESI
Collision energy: 6.0000000
Column name: Acquity CSHC18
Retention time: 4.419 min
Base peak: 433.29557
Precursor m/z: 433.29557
Precursor type: [M+H]+
m/z	relative intensity
117.071	6
131.0864	41
132.0896	2
149.0238	12
171.1168	14
173.1293	6
184.605	9
189.1275	17
195.1291	2
196.0737	17
197.091	216
198.0991	7
206.0966	277
206.5972	51
207.1367	41
209.1339	51
215.1016	317
215.6032	67
227.1454	17
233.152	6
235.1459	10
236.1376	26
249.1846	65
257.1899	2
263.2007	87
270.1022	4
275.2028	3
281.1669	6
301.1405	39
302.1961	3
319.2057	253
320.2079	62
337.2161	453
338.2203	105
355.2269	285
356.2295	66
357.227	3
361.2526	53
362.2547	13
373.2354	15
379.2637	820
380.2642	224
397.2728	999
398.2762	292
399.2806	41
414.1836	2
415.2851	359
416.2919	108
417.2889	12
429.1963	77
433.2956	427
434.2991	123
