Mass spectrum: Hydroxycamalexin-O-hexoside; LC-ESI-QTOF; MS2; CE: 50eV;  [M+H]+
Name: Hydroxycamalexin-O-hexoside
Class: Indole
Formula: C17H18N2O6S
Exact mass: 378.0886
SMILES: O[C@@H]1[C@@H](O)[C@@H](O)[C@H](OC2=CC=C(NC=C3C4=NC=CS4)C3=C2)O[C@@H]1CO
InChI: InChI=1S/C17H18N2O6S/c20-7-12-13(21)14(22)15(23)17(25-12)24-8-1-2-11-9(5-8)10(6-19-11)16-18-3-4-26-16/h1-6,12-15,17,19-23H,7H2/t12-,13+,14-,15-,17-/m1/s1
Instrument: TIMS-TOF Pro, Bruker Daltonik; Elute UHPLC System, Bruker Daltonik
Instrument type: LC-ESI-QTOF
Ms type: MS2
Ion mode: POSITIVE
Ionization: ESI
Collision energy: 50eV
Column name: Acquity CSHC18
Retention time: 5.182 min
Base peak: 379.0916
Precursor m/z: 379.0916
Precursor type: [M+H]+
Precursor intensity: 17054.67
m/z	relative intensity
85.155	4
104.0492	22
216.0361	29
217.0401	999
218.0416	78
379.0112	16
379.0885	209
