Mass spectrum: Theobromine; LC-ESI-ITFT; MS2; CE: 100;  [M+H]+
Name: Theobromine
Class: Organoheterocyclic compounds; Imidazopyrimidines; Purines and purine derivatives
Formula: C7H8N4O2
Exact mass: 180.06473
SMILES: CN1C=NC2=C1C(=O)NC(=O)N2C
InChI: InChI=1S/C7H8N4O2/c1-10-3-8-5-4(10)6(12)9-7(13)11(5)2/h3H,1-2H3,(H,9,12,13)
Instrument: Thermo Scientific Q-Exactive Focus
Instrument type: LC-ESI-ITFT
Ms type: MS2
Ion mode: POSITIVE
Ionization: ESI
Collision energy: 100
Column name: Acquity CSHC18
Retention time: NA
Base peak: 181.07201
Precursor m/z: 181.07201
Precursor type: [M+H]+
m/z	relative intensity
67.0296	959
71.9202	809
89.7691	835
99.6295	836
121.4841	791
122.1944	999
126.2035	888
139.6123	808
176.5612	902
177.6642	943
