Mass spectrum: Methylmalonyl-CoA; LC-ESI-ITFT; MS2; CE: 60;  [M-H]-
Name: Methylmalonyl-CoA
Class: Lipids and lipid-like molecules; Fatty Acyls; Fatty acyl thioesters
Formula: C25H40N7O19P3S
Exact mass: 867.13125
SMILES: C[C@@H](C(O)=O)C(=O)SCCNC(=O)CCNC(=O)C(O)C(C)(C)COP(O)(=O)OP(O)(=O)OC[C@H]1O[C@H]([C@H](O)[C@@H]1OP(O)(O)=O)N1C=NC2=C1N=CN=C2N
InChI: InChI=1S/C25H40N7O19P3S/c1-12(23(37)38)24(39)55-7-6-27-14(33)4-5-28-21(36)18(35)25(2,3)9-48-54(45,46)51-53(43,44)47-8-13-17(50-52(40,41)42)16(34)22(49-13)32-11-31-15-19(26)29-10-30-20(15)32/h10-13,16-18,22,34-35H,4-9H2,1-3H3,(H,27,33)(H,28,36)(H,37,38)(H,43,44)(H,45,46)(H2,26,29,30)(H2,40,41,42)/t12-,13+,16+,17+,18?,22+/m0/s1
Instrument: Thermo Scientific Q-Exactive Focus
Instrument type: LC-ESI-ITFT
Ms type: MS2
Ion mode: NEGATIVE
Ionization: ESI
Collision energy: 60
Column name: Acquity CSHC18
Retention time: 2.031 min
Base peak: 866.12396
Precursor m/z: 866.12396
Precursor type: [M-H]-
m/z	relative intensity
78.9578	999
96.9683	92
134.046	435
158.9243	579
272.957	323
328.0447	122
339.0779	142
395.1039	166
408.0108	427
475.0699	211
