Mass spectrum: 1,2-dilinolenoyl-sn-glycero-3-phosphocholine; ESI-TOF; MS2; CE: 6.0000000;  [M+H]+
Name: 1,2-dilinolenoyl-sn-glycero-3-phosphocholine
Class: NA
Formula: C44H76NO8P
Exact mass: 777.53086
SMILES: [H]C(=C([H])C([H])([H])C([H])=C([H])C([H])([H])C([H])([H])C([H])([H])C([H])([H])C([H])([H])C([H])([H])C([H])([H])C(=O)OC([H])([H])C([H])(OC(=O)C([H])([H])C([H])([H])C([H])([H])C([H])([H])C([H])([H])C([H])([H])C([H])([H])C([H])=C([H])C([H])([H])C([H])=C([H])C([H])([H])C([H])=C([H])C([H])([H])C([H])([H])[H])C([H])([H])OP(=O)([O-])OC([H])([H])C([H])([H])[N+](C([H])([H])[H])(C([H])([H])[H])C([H])([H])[H])C([H])([H])C([H])=C([H])C([H])([H])C([H])([H])[H]
InChI: InChI=1S/C44H76NO8P/c1-6-8-10-12-14-16-18-20-22-24-26-28-30-32-34-36-43(46)50-40-42(41-52-54(48,49)51-39-38-45(3,4)5)53-44(47)37-35-33-31-29-27-25-23-21-19-17-15-13-11-9-7-2/h8-11,14-17,20-23,42H,6-7,12-13,18-19,24-41H2,1-5H3
Instrument: waters xevo g2 TOF
Instrument type: ESI-TOF
Ms type: MS2
Ion mode: POSITIVE
Ionization: ESI
Collision energy: 6.0000000
Column name: Acquity CSHC18
Retention time: 10.143 min
Base peak: 778.53886
Precursor m/z: 778.53886
Precursor type: [M+H]+
m/z	relative intensity
184.0738	10
269.6338	2
277.1178	1
286.1244	3
301.2017	1
317.1794	139
318.1831	13
319.1841	2
321.1724	1
332.1522	2
333.1512	24
334.1549	1
335.1516	2
408.7465	99
409.248	19
409.7499	6
410.2501	1
473.725	3
474.2262	1
481.7149	1
500.3136	189
501.317	31
502.3191	8
560.3292	2
565.3209	1
595.4725	6
596.4754	2
778.5375	999
779.5414	508
