Mass spectrum: (+)-catechin; LC-ESI-ITFT; MS2; CE: 0.3;  [M+H]+
Name: (+)-catechin
Class: flavanols
Formula: C15H14O6
Exact mass: 290.0790
SMILES: C1C(C(OC2=CC(=CC(=C21)O)O)C3=CC(=C(C=C3)O)O)O
InChI: InChI=1S/C15H14O6/c16-8-4-11(18)9-6-13(20)15(21-14(9)5-8)7-1-2-10(17)12(19)3-7/h1-5,13,15-20H,6H2
Instrument: LTQ-Orbitrap XL hybrid mass spectrometer (Thermo Scientific)
Instrument type: LC-ESI-ITFT
Ms type: MS2
Ion mode: POSITIVE
Ionization: ESI
Collision energy: 0.3
Column name: Acquity CSHC18
Retention time: 5.734 min
Base peak: 291.0876
Precursor m/z: 291.0876
Precursor type: [M+H]+
Precursor intensity: 8890661
m/z	relative intensity
70.8105	4
71.6429	7
72.5084	4
72.6194	4
73.4453	5
74.8419	4
79.0543	5
80.1035	5
83.0385	4
86.1	6
86.8807	4
88.8278	4
91.3248	5
91.7394	4
92.1439	4
93.7069	5
98.8206	4
103.1658	8
116.6436	4
119.0494	8
123.0417	8
123.0443	946
123.3616	6
123.4411	6
123.6402	10
137.0602	10
138.3294	8
138.5655	5
139.0364	8
139.0393	999
139.5162	9
139.7554	11
144.4792	4
147.0445	158
151.0394	279
161.1964	13
165.0552	498
165.6717	4
167.6681	5
169.0503	24
172.2849	4
181.05	5
194.463	3
194.5063	4
194.5111	3
194.5207	4
194.5244	4
194.5443	4
194.5482	3
196.1387	18
249.0772	16
273.0772	240
286.5704	16
