Mass spectrum: FUMARATE; LC-ESI-QTOF; MS2; CE: 40;  [M-H]-
Name: FUMARATE
Class: NA
Formula: C4H4O4
Exact mass: 116.01096
SMILES: OC(=O)\C=C\C(O)=O
InChI: InChI=1S/C4H4O4/c5-3(6)1-2-4(7)8/h1-2H,(H,5,6)(H,7,8)/b2-1+
Instrument: Agilent 6530Â Q-TOF LC/MS
Instrument type: LC-ESI-QTOF
Ms type: MS2
Ion mode: NEGATIVE
Ionization: ESI
Collision energy: 40
Column name: NA
Retention time: 0.200 min
Base peak: 115.00303
Precursor m/z: 115.00303
Precursor type: [M-H]-
Precursor intensity: 180
m/z	relative intensity
46.664	15
48.9677	60
48.9717	575
48.9757	968
48.9798	817
48.9838	575
48.9878	378
48.9918	272
48.9958	196
48.9998	257
49.0038	272
49.0079	151
49.0119	15
49.036	30
49.04	30
49.0641	60
49.0681	30
49.2249	15
51.0889	45
56.5434	45
59.9436	15
59.948	181
59.9524	287
59.9569	348
59.9613	317
59.9658	317
59.9702	227
59.9746	60
60.0146	15
61.3098	15
62.987	15
63.9968	438
64.0014	999
64.006	999
64.0106	787
64.0152	575
64.0198	469
64.0243	378
64.0289	317
64.0335	181
64.0381	75
64.0427	75
64.0473	60
64.0611	30
64.2816	15
64.4472	15
66.732	45
66.7367	30
68.036	15
68.0407	15
70.0227	30
73.3139	45
82.3039	30
83.5362	15
84.1664	15
85.3807	30
96.1327	15
100.0972	30
106.7208	15
106.7268	15
117.8745	15
