Mass spectrum: Betaine; LC-ESI-QTOF; MS2; CE: 15.00;  [2M+H]+
Name: Betaine
Class: NA
Formula: C5H11NO2
Exact mass: 117.0790
SMILES: C[N+](C)(C)CC(=O)[O-]
InChI: InChI=1S/C5H11NO2/c1-6(2,3)4-5(7)8/h4H2,1-3H3
Instrument: Bruker MicrOTOF-Q
Instrument type: LC-ESI-QTOF
Ms type: MS2
Ion mode: POSITIVE
Ionization: ESI
Collision energy: 15.00
Column name: Acquity CSHC18
Retention time: NA
Base peak: 235.1652
Precursor m/z: 235.1652
Precursor type: [2M+H]+
m/z	relative intensity
118.0864	999
118.1895	2
118.2543	1
118.3174	1
118.3575	1
118.4063	1
118.4655	1
118.527	1
119.0897	52
132.1001	9
176.0911	1
