Mass spectrum: L-Histidinol; LC-ESI-ITFT; MS2; CE: 60;  [M+H]+
Name: L-Histidinol
Class: Organic nitrogen compounds; Organonitrogen compounds; Amines
Formula: C6H11N3O
Exact mass: 141.09021
SMILES: N[C@H](CO)CC1=CN=CN1
InChI: InChI=1S/C6H11N3O/c7-5(3-10)1-6-2-8-4-9-6/h2,4-5,10H,1,3,7H2,(H,8,9)/t5-/m0/s1
Instrument: Thermo Scientific Q-Exactive Focus
Instrument type: LC-ESI-ITFT
Ms type: MS2
Ion mode: POSITIVE
Ionization: ESI
Collision energy: 60
Column name: Acquity CSHC18
Retention time: 2.016 min
Base peak: 142.09749
Precursor m/z: 142.09749
Precursor type: [M+H]+
m/z	relative intensity
53.0391	53
54.0344	999
68.0499	62
81.0451	576
82.0529	37
95.0606	44
113.7807	31
116.9206	33
117.4403	31
152.7279	35
