Mass spectrum: Palmitic acid; LC-ESI-QTOF; MS2; CE: 15.00;  [M-H]-
Name: Palmitic acid
Class: NA
Formula: C16H32O2
Exact mass: 256.2402
SMILES: CCCCCCCCCCCCCCCC(=O)O
InChI: InChI=1S/C16H32O2/c1-2-3-4-5-6-7-8-9-10-11-12-13-14-15-16(17)18/h2-15H2,1H3,(H,17,18)
Instrument: Bruker MicrOTOF-Q
Instrument type: LC-ESI-QTOF
Ms type: MS2
Ion mode: NEGATIVE
Ionization: ESI
Collision energy: 15.00
Column name: Acquity CSHC18
Retention time: NA
Base peak: 255.2330
Precursor m/z: 255.2330
Precursor type: [M-H]-
m/z	relative intensity
45.23	19
47.06	29
50.07	19
51.28	19
52.89	19
54.13	19
55.81	19
57.58	19
58.18	19
58.66	19
59.09	19
64.54	39
65.66	39
67.47	19
68.425	19
69.68	39
71.78	19
73.66	19
74.38	19
75.36	19
75.94	39
76.7133	32
77.72	39
79.53	19
80.67	19
81.34	19
81.79	19
83.7	39
85.945	29
86.53	39
87.53	19
88.22	39
89.86	39
90.45	19
91.355	39
91.98	19
93.17	29
94.11	19
94.62	19
96.86	19
97.99	29
98.975	19
101.745	39
103.51	19
107.42	39
120.42	39
123.13	39
124.85	39
125.97	39
127	39
132.6	19
134.2433	32
135.93	29
136.71	39
137.37	19
138.1	19
139.15	19
140.11	19
141.3	19
142.2267	19
142.84	19
144.88	29
145.86	39
146.66	19
149.205	19
152.27	19
153.33	26
156.496	19
158.35	29
161.69	39
162.265	29
163.31	19
164.33	39
165.365	19
165.91	19
167.77	26
168.42	19
168.98	19
170.01	19
173.1433	26
175.12	19
176.25	19
176.98	39
179.17	19
179.97	19
180.53	19
181.465	29
183.56	19
184.56	19
185.01	19
186.31	39
187.005	39
187.57	19
188.4033	19
189.39	19
190.72	39
192.77	19
193.89	19
194.44	39
195.1	19
196.2425	34
197.485	19
199.005	24
200.09	32
201.035	19
202.63	39
203.07	19
204.49	19
204.98	39
205.59	39
206.43	19
207.94	26
208.68	19
209.3767	19
210.28	29
210.89	19
211.68	19
212.48	19
212.95	39
213.43	39
213.88	19
214.85	39
215.45	19
216.36	29
217.775	19
218.4	19
218.81	19
219.73	39
220.68	39
221.69	19
222.41	39
223.27	19
225.02	19
226.45	19
227.08	29
229.33	19
230.655	29
231.855	29
232.54	39
233.01	39
234.26	19
236.49	29
237.22	256
238.19	19
240.355	49
241.02	19
246.71	19
248.83	39
251.5	19
252.815	39
254.9992	999
257.24	118
333.19	39
496.71	39
638.22	39
840.41	39
850.41	39
979.97	39
