Mass spectrum: Methyl ferulate; LC-ESI-QTOF; MS2; CE: 50eV;  [M-H]-
Name: Methyl ferulate
Class: Phenylpropanoid
Formula: C11H12O4
Exact mass: 208.0736
SMILES: COC1=C(C=CC(=C1)C=CC(=O)OC)O
InChI: InChI=1S/C11H12O4/c1-14-10-7-8(3-5-9(10)12)4-6-11(13)15-2/h3-7,12H,1-2H3
Instrument: TIMS-TOF Pro, Bruker Daltonik; Elute UHPLC System, Bruker Daltonik
Instrument type: LC-ESI-QTOF
Ms type: MS2
Ion mode: NEGATIVE
Ionization: ESI
Collision energy: 50eV
Column name: Acquity CSHC18
Retention time: 7.179 min
Base peak: 207.0659
Precursor m/z: 207.0659
Precursor type: [M-H]-
Precursor intensity: 44227.44
m/z	relative intensity
51.0253	5
65.0016	6
71.5584	4
73.657	3
77.0387	138
78.0411	4
84.4307	3
92.5461	4
96.7256	4
102.5946	7
105.0333	119
106.0359	9
117.0328	4
132.0186	20
133.0278	206
134.0317	13
149.0213	22
164.0429	20
165.0482	4
177.0165	97
178.0207	7
192.0013	4
192.0406	999
192.1455	3
192.3357	6
192.432	6
192.6332	4
192.8499	4
193.0427	90
207.0591	4
