Mass spectrum: Umbelliferone; LC-ESI-ITFT; MS2; CE: 20;  [M+H]+
Name: Umbelliferone
Class: Phenylpropanoids and polyketides; Coumarins and derivatives; Hydroxycoumarins
Formula: C9H6O3
Exact mass: 162.03169
SMILES: OC1=CC2=C(C=C1)C=CC(=O)O2
InChI: InChI=1S/C9H6O3/c10-7-3-1-6-2-4-9(11)12-8(6)5-7/h1-5,10H
Instrument: Thermo Scientific Q-Exactive Focus
Instrument type: LC-ESI-ITFT
Ms type: MS2
Ion mode: POSITIVE
Ionization: ESI
Collision energy: 20
Column name: Acquity CSHC18
Retention time: 0.630 min
Base peak: 163.03897
Precursor m/z: 163.03897
Precursor type: [M+H]+
m/z	relative intensity
53.0391	14
65.039	33
68.9975	9
79.0546	34
91.0545	387
95.0494	39
107.0493	999
119.0492	260
135.0439	32
163.0388	412
