Mass spectrum: CREATININE; LC-ESI-QFT; MS2; CE: 30eV;  [M+H]+
Name: CREATININE
Class: NA
Formula: C4H7N3O
Exact mass: 113.05891
SMILES: CN1CC(=O)NC1=N
InChI: InChI=1S/C4H7N3O/c1-7-2-3(8)6-4(7)5/h2H2,1H3,(H2,5,6,8)
Instrument: Q-Exactive Orbitrap, Thermo Scientfic; Ultimate 3000 HPLC, Thermo Scientfic
Instrument type: LC-ESI-QFT
Ms type: MS2
Ion mode: POSITIVE
Ionization: ESI
Collision energy: 30eV
Column name: Acquity CSHC18
Retention time: 0.608 min
Base peak: 114.0662
Precursor m/z: 114.0662
Precursor type: [M+H]+
Precursor intensity: 150
m/z	relative intensity
53.43	8
56.9956	7
62.2355	7
63.5858	7
72.0452	96
72.9379	21
86.072	999
103.1724	8
103.8889	8
104.0824	43
112.395	7
113.7372	9
115.0638	43
115.0701	138
121.8847	9
