Mass spectrum: Raphanusamic acid; LC-ESI-QTOF; MS2; CE: 15.00;  [M+H]+
Name: Raphanusamic acid
Class: NA
Formula: C4H5NO2S2
Exact mass: 162.9762
SMILES: C1C(NC(=S)S1)C(=O)O
InChI: InChI=1S/C4H5NO2S2/c6-3(7)2-1-9-4(8)5-2/h2H,1H2,(H,5,8)(H,6,7)
Instrument: Bruker MicrOTOF-Q
Instrument type: LC-ESI-QTOF
Ms type: MS2
Ion mode: POSITIVE
Ionization: ESI
Collision energy: 15.00
Column name: Acquity CSHC18
Retention time: NA
Base peak: 163.9834
Precursor m/z: 163.9834
Precursor type: [M+H]+
m/z	relative intensity
90.97	5
100.93	2
105	10
117.66	2
117.98	999
118.11	2
118.2	2
118.26	2
118.35	2
118.41	2
118.64	2
118.73	2
118.98	34
119.97	29
121.34	5
121.54	3
121.61	3
163.98	55
164.98	4
165.98	5
379.9	2
