Mass spectrum: 3,4-Dihydroxymandelic acid; LC-ESI-ITFT; MS2; CE: 40;  [M-H]-
Name: 3,4-Dihydroxymandelic acid
Class: Benzenoids; Phenols; Benzenediols
Formula: C8H8O5
Exact mass: 184.03717
SMILES: OC(C(O)=O)C1=CC=C(O)C(O)=C1
InChI: InChI=1S/C8H8O5/c9-5-2-1-4(3-6(5)10)7(11)8(12)13/h1-3,7,9-11H,(H,12,13)
Instrument: Thermo Scientific Q-Exactive Focus
Instrument type: LC-ESI-ITFT
Ms type: MS2
Ion mode: NEGATIVE
Ionization: ESI
Collision energy: 40
Column name: Acquity CSHC18
Retention time: 1.476 min
Base peak: 183.02991
Precursor m/z: 183.02991
Precursor type: [M-H]-
m/z	relative intensity
65.0384	999
81.0333	97
91.0177	99
93.0333	566
108.0204	594
109.0282	228
121.0283	29
136.0155	649
137.0232	820
144.9573	24
