Mass spectrum: Gentisic acid; LC-ESI-ITFT; MS2; CE: 30;  [M-H]-
Name: Gentisic acid
Class: Benzenoids; Benzene and substituted derivatives; Benzoic acids and derivatives
Formula: C7H6O4
Exact mass: 154.02661
SMILES: OC(=O)C1=C(O)C=CC(O)=C1
InChI: InChI=1S/C7H6O4/c8-4-1-2-6(9)5(3-4)7(10)11/h1-3,8-9H,(H,10,11)
Instrument: Thermo Scientific Q-Exactive Focus
Instrument type: LC-ESI-ITFT
Ms type: MS2
Ion mode: NEGATIVE
Ionization: ESI
Collision energy: 30
Column name: Acquity CSHC18
Retention time: 0.926 min
Base peak: 153.01933
Precursor m/z: 153.01933
Precursor type: [M-H]-
m/z	relative intensity
60.9229	2
81.0333	13
91.5721	2
92.986	2
100.4037	2
108.0205	999
109.0282	24
139.9811	2
162.9888	2
168.0559	2
