Mass spectrum: C12 Dihydroceramide (d18:0/12:0); ESI-TOF; MS2; CE: 0.6458333;  [M+H]+
Name: C12 Dihydroceramide (d18:0/12:0)
Class: NA
Formula: C30H61NO3
Exact mass: 483.46514
SMILES: [H]OC([H])([H])C([H])(N([H])C(=O)C([H])([H])C([H])([H])C([H])([H])C([H])([H])C([H])([H])C([H])([H])C([H])([H])C([H])([H])C([H])([H])C([H])([H])C([H])([H])[H])C([H])(O[H])C([H])([H])C([H])([H])C([H])([H])C([H])([H])C([H])([H])C([H])([H])C([H])([H])C([H])([H])C([H])([H])C([H])([H])C([H])([H])C([H])([H])C([H])([H])C([H])([H])C([H])([H])[H]
InChI: InChI=1S/C30H61NO3/c1-3-5-7-9-11-13-14-15-16-18-19-21-23-25-29(33)28(27-32)31-30(34)26-24-22-20-17-12-10-8-6-4-2/h28-29,32-33H,3-27H2,1-2H3,(H,31,34)
Instrument: waters xevo g2 TOF
Instrument type: ESI-TOF
Ms type: MS2
Ion mode: POSITIVE
Ionization: ESI
Collision energy: 0.6458333
Column name: Acquity CSHC18
Retention time: 9.969 min
Base peak: 484.47314
Precursor m/z: 484.47314
Precursor type: [M+H]+
m/z	relative intensity
60.0457	6
69.0705	4
83.0864	14
95.0863	35
97.1016	17
109.1021	24
123.1172	12
200.2016	230
201.2041	31
237.7038	9
238.1764	10
240.2692	4
252.7097	6
253.2144	3
254.2849	17
261.7142	30
262.2161	14
262.717	1
264.1638	40
265.1665	3
266.283	221
267.287	47
280.136	4
284.2953	352
285.2986	77
298.1467	5
302.3057	78
303.3086	12
448.4515	63
449.4539	21
466.4618	999
467.4657	359
468.4673	62
469.4699	4
484.4723	327
485.4756	113
