Mass spectrum: 4-Methylumbelliferone; LC-ESI-QTOF; MS2; CE: 50eV;  [M-H]-
Name: 4-Methylumbelliferone
Class: Coumarin
Formula: C10H8O3
Exact mass: 176.0473
SMILES: CC1=CC(=O)OC2=C1C=CC(=C2)O
InChI: InChI=1S/C10H8O3/c1-6-4-10(12)13-9-5-7(11)2-3-8(6)9/h2-5,11H,1H3
Instrument: TIMS-TOF Pro, Bruker Daltonik; Elute UHPLC System, Bruker Daltonik
Instrument type: LC-ESI-QTOF
Ms type: MS2
Ion mode: NEGATIVE
Ionization: ESI
Collision energy: 50eV
Column name: Acquity CSHC18
Retention time: 5.956 min
Base peak: 175.0373
Precursor m/z: 175.0373
Precursor type: [M-H]-
Precursor intensity: 58302.19
m/z	relative intensity
41.0015	8
49.0072	6
51.022	4
63.0226	29
65.0018	82
65.0387	10
77.0391	19
78.0443	3
87.0239	4
88.0299	9
89.0373	64
91.018	37
93.0327	78
99.6573	2
102.0451	3
103.0542	3
104.0249	10
105.034	27
106.0367	4
107.049	6
108.0202	3
117.0338	26
119.0484	112
120.0517	10
130.0417	3
131.0488	87
132.018	5
133.0254	4
134.0312	3
135.0059	2
147.043	97
148.0447	7
175.0373	999
175.4109	8
175.4819	2
