Mass spectrum: 3-Methoxytyramine; ESI-TOF; MS2; CE: 0.6458333;  [M+H]+
Name: 3-Methoxytyramine
Class: NA
Formula: C9H13NO2
Exact mass: 167.09463
SMILES: COC1=C(O)C=CC(CCN)=C1
InChI: InChI=1S/C9H13NO2/c1-12-9-6-7(4-5-10)2-3-8(9)11/h2-3,6,11H,4-5,10H2,1H3
Instrument: waters xevo g2 TOF
Instrument type: ESI-TOF
Ms type: MS2
Ion mode: POSITIVE
Ionization: ESI
Collision energy: 0.6458333
Column name: Acquity CSHC18
Retention time: 0.570 min
Base peak: 168.10263
Precursor m/z: 168.10263
Precursor type: [M+H]+
m/z	relative intensity
65.04	184
66.0434	11
72.9374	2
80.0563	129
81.0342	2
91.0975	9
92.0582	73
93.0347	8
95.0498	263
96.0531	17
100.992	1
105.0709	33
119.1722	1
123.0809	33
133.9293	2
136.0525	533
137.0605	68
151.087	999
152.0793	110
153.0813	10
159.0423	12
