Mass spectrum: Pyridoxine; LC-ESI-ITFT; MS2; CE: 60;  [M-H]-
Name: Pyridoxine
Class: Organoheterocyclic compounds; Pyridines and derivatives; Pyridoxines
Formula: C8H11NO3
Exact mass: 169.07389
SMILES: CC1=C(O)C(CO)=C(CO)C=N1
InChI: InChI=1S/C8H11NO3/c1-5-8(12)7(4-11)6(3-10)2-9-5/h2,10-12H,3-4H2,1H3
Instrument: Thermo Scientific Q-Exactive Focus
Instrument type: LC-ESI-ITFT
Ms type: MS2
Ion mode: NEGATIVE
Ionization: ESI
Collision energy: 60
Column name: Acquity CSHC18
Retention time: 1.761 min
Base peak: 168.06662
Precursor m/z: 168.06662
Precursor type: [M-H]-
m/z	relative intensity
65.0021	999
79.0177	940
83.3977	141
92.1419	152
128.9079	149
135.8954	143
147.6347	160
160.4733	151
172.1826	143
176.8057	155
