Mass spectrum: TTP; LC-ESI-QTOF; MS2; CE: 60;  [M-H]-
Name: TTP
Class: Pyrimidine 2'-deoxyribonucleoside triphosphates
Formula: C10H17N2O14P3
Exact mass: 481.98926
SMILES: CC1=CN([C@H]2C[C@H](O)[C@@H](COP(O)(=O)OP(O)(=O)OP(O)(O)=O)O2)C(=O)NC1=O
InChI: InChI=1S/C10H17N2O14P3/c1-5-3-12(10(15)11-9(5)14)8-2-6(13)7(24-8)4-23-28(19,20)26-29(21,22)25-27(16,17)18/h3,6-8,13H,2,4H2,1H3,(H,19,20)(H,21,22)(H,11,14,15)(H2,16,17,18)/t6-,7+,8+/m0/s1
Instrument: impact II
Instrument type: LC-ESI-QTOF
Ms type: MS2
Ion mode: NEGATIVE
Ionization: ESI
Collision energy: 60
Column name: Acquity CSHC18
Retention time: 1.854 min
Base peak: 480.98160
Precursor m/z: 480.98160
Precursor type: [M-H]-
m/z	relative intensity
78.9593	734
158.9251	999
