Mass spectrum: Pentadecanoic acid; LC-ESI-ITFT; MS2; CE: 40;  [M-H]-
Name: Pentadecanoic acid
Class: Lipids and lipid-like molecules; Fatty Acyls; Fatty acids and conjugates
Formula: C15H30O2
Exact mass: 242.22458
SMILES: CCCCCCCCCCCCCCC(O)=O
InChI: InChI=1S/C15H30O2/c1-2-3-4-5-6-7-8-9-10-11-12-13-14-15(16)17/h2-14H2,1H3,(H,16,17)
Instrument: Thermo Scientific Q-Exactive Focus
Instrument type: LC-ESI-ITFT
Ms type: MS2
Ion mode: NEGATIVE
Ionization: ESI
Collision energy: 40
Column name: Acquity CSHC18
Retention time: 1.477 min
Base peak: 241.21730
Precursor m/z: 241.21730
Precursor type: [M-H]-
m/z	relative intensity
78.9578	124
93.0001	999
94.9794	141
94.997	188
149.0085	353
150.9145	391
166.9095	126
168.9251	293
184.9201	247
194.9265	276
