Mass spectrum: L-Histidinol; ESI-TOF; MS2; CE: 0.6458333;  [M+H]+
Name: L-Histidinol
Class: NA
Formula: C6H11N3O
Exact mass: 141.09021
SMILES: NC(CO)CC1=CN=CN1
InChI: InChI=1S/C6H11N3O/c7-5(3-10)1-6-2-8-4-9-6/h2,4-5,10H,1,3,7H2,(H,8,9)
Instrument: waters xevo g2 TOF
Instrument type: ESI-TOF
Ms type: MS2
Ion mode: POSITIVE
Ionization: ESI
Collision energy: 0.6458333
Column name: Acquity CSHC18
Retention time: 0.447 min
Base peak: 142.09821
Precursor m/z: 142.09821
Precursor type: [M+H]+
m/z	relative intensity
81.0456	999
83.0613	57
95.061	269
107.0609	44
113.9643	196
124.0874	503
125.0722	129
126.0744	1
138.9899	1
138.9908	1
142.098	61
142.9606	1
143.1005	1
158.0031	1
164.0789	1
337.105	1
339.1067	12
