Mass spectrum: UDPGlucNAc; LC-ESI-QTOF; MS2; CE: 60;  [M+Na]+
Name: UDPGlucNAc
Class: Pyrimidine nucleotide sugars
Formula: C17H27N3O17P2
Exact mass: 607.08157
SMILES: CC(=O)N[C@@H]1[C@@H](O)[C@H](O)[C@@H](CO)O[C@@H]1OP(O)(=O)OP(O)(=O)OC[C@H]1O[C@H]([C@H](O)[C@@H]1O)N1C=CC(=O)NC1=O
InChI: InChI=1S/C17H27N3O17P2/c1-6(22)18-10-13(26)11(24)7(4-21)35-16(10)36-39(31,32)37-38(29,30)33-5-8-12(25)14(27)15(34-8)20-3-2-9(23)19-17(20)28/h2-3,7-8,10-16,21,24-27H,4-5H2,1H3,(H,18,22)(H,29,30)(H,31,32)(H,19,23,28)/t7-,8-,10-,11-,12-,13-,14-,15-,16-/m1/s1
Instrument: impact II
Instrument type: LC-ESI-QTOF
Ms type: MS2
Ion mode: POSITIVE
Ionization: ESI
Collision energy: 60
Column name: Acquity CSHC18
Retention time: 1.738 min
Base peak: 630.07140
Precursor m/z: 630.07140
Precursor type: [M+Na]+
m/z	relative intensity
97.0284	125
120.9662	170
200.9324	999
249.0485	240
347.0254	280
