Mass spectrum: thiamine; LC-ESI-QTOF; MS2; CE: -10, -35, -60V;  [M-H]-
Name: thiamine
Class: NA
Formula: [C12H17N4OS]+
Exact mass: 265.1118
SMILES: CC1=C(SC=[N+]1CC2=CN=C(N=C2N)C)CCO
InChI: InChI=1S/C12H17N4OS/c1-8-11(3-4-17)18-7-16(8)6-10-5-14-9(2)15-12(10)13/h5,7,17H,3-4,6H2,1-2H3,(H2,13,14,15)/q+1
Instrument: TripleToF 5600; Sciex
Instrument type: LC-ESI-QTOF
Ms type: MS2
Ion mode: NEGATIVE
Ionization: ESI
Collision energy: -10, -35, -60V
Column name: Acquity CSHC18
Retention time: 0.616 min
Base peak: 264.1005
Precursor m/z: 264.1005
Precursor type: [M-H]-
Precursor intensity: 17870.06
m/z	relative intensity
93.0417	8
104.0245	3
105.0478	4
118.0444	4
120.059	7
132.0565	10
146.5961	6
147.0682	999
148.0714	142
149.0762	5
196.9688	4
199.1063	3
233.0892	444
234.0924	97
235.0848	36
263.0988	514
264.1026	126
