Mass spectrum: Homocysteine; ESI-TOF; MS2; CE: 6.0000000;  [M+H]+
Name: Homocysteine
Class: NA
Formula: C4H9NO2S
Exact mass: 135.03540
SMILES: NC(CCS)C(O)=O
InChI: InChI=1S/C4H9NO2S/c5-3(1-2-8)4(6)7/h3,8H,1-2,5H2,(H,6,7)
Instrument: waters xevo g2 TOF
Instrument type: ESI-TOF
Ms type: MS2
Ion mode: POSITIVE
Ionization: ESI
Collision energy: 6.0000000
Column name: Acquity CSHC18
Retention time: 0.560 min
Base peak: 136.04340
Precursor m/z: 136.04340
Precursor type: [M+H]+
m/z	relative intensity
73.0113	6
88.0221	18
90.0376	325
91.0405	10
92.0332	10
108.9647	1
118.0325	394
130.9667	15
134.0264	105
136.0436	999
137.0458	58
138.0395	42
148.0432	102
149.0448	5
149.9609	15
162.0587	21
167.007	2
177.9804	1
180.989	3
189.9625	10
192.1598	3
206.0135	2
230.9627	1
234.9637	3
236.9392	8
269.0631	27
277.9841	5
306.9931	2
322.9836	4
324.9885	5
