Mass spectrum: D-PINITOL; LC-ESI-QTOF; MS2; CE: 10;  [M-H]-
Name: D-PINITOL
Class: NA
Formula: C7H14O6
Exact mass: 194.07904
SMILES: CO[C@@H]1[C@@H](O)[C@@H](O)[C@H](O)[C@H](O)[C@H]1O
InChI: InChI=1S/C7H14O6/c1-13-7-5(11)3(9)2(8)4(10)6(7)12/h2-12H,1H3/t2-,3-,4-,5-,6+,7+/m0/s1
Instrument: Agilent 6530Â Q-TOF LC/MS
Instrument type: LC-ESI-QTOF
Ms type: MS2
Ion mode: NEGATIVE
Ionization: ESI
Collision energy: 10
Column name: NA
Retention time: 0.200 min
Base peak: 193.07197
Precursor m/z: 193.07197
Precursor type: [M-H]-
Precursor intensity: 151
m/z	relative intensity
41.0088	125
43.029	127
45.0053	130
51.0264	132
53.0366	136
55.0282	150
57.0371	153
58.0069	164
59.0268	171
69.0411	177
71.0302	186
73.0451	195
79.0218	197
81.0327	235
83.0244	259
85.0456	295
86.0055	309
87.0216	333
89.0202	344
95.0181	347
97.0354	361
99.0225	371
100.0151	377
101.0385	386
111.0025	390
112.0108	401
113.0235	498
123.0074	685
124.008	721
125.035	726
140.0043	728
141.0273	766
142.0233	824
155.0368	829
161.0707	944
193.0956	999
