Mass spectrum: ANSERINE; LC-ESI-QTOF; MS2; CE: 40;  [M+H]+
Name: ANSERINE
Class: NA
Formula: C10H16N4O3
Exact mass: 240.12224
SMILES: CN1C=NC=C1C[C@H](NC(=O)CCN)C(O)=O
InChI: InChI=1S/C10H16N4O3/c1-14-6-12-5-7(14)4-8(10(16)17)13-9(15)2-3-11/h5-6,8H,2-4,11H2,1H3,(H,13,15)(H,16,17)/t8-/m0/s1
Instrument: Agilent 6530Â Q-TOF LC/MS
Instrument type: LC-ESI-QTOF
Ms type: MS2
Ion mode: POSITIVE
Ionization: ESI
Collision energy: 40
Column name: NA
Retention time: 0.200 min
Base peak: 241.12863
Precursor m/z: 241.12863
Precursor type: [M+H]+
Precursor intensity: 160.5
m/z	relative intensity
41.058	25
42.0518	27
43.0239	27
44.056	28
53.0391	28
54.0476	30
55.0562	30
56.0675	31
59.0676	31
65.0457	39
66.0479	41
67.0531	41
68.0753	42
69.0672	44
70.0662	49
72.0542	51
80.0635	54
81.0666	56
82.0811	61
83.0785	65
93.0538	65
94.0711	67
95.1125	75
95.2728	76
95.4757	106
96.1703	112
96.4493	112
97.1052	113
107.0796	131
108.0574	132
109.1175	138
109.36	147
109.5099	168
110.0774	172
111.0778	175
112.0373	182
123.0922	185
124.0989	204
126.1182	221
131.0637	264
133.0758	339
135.0766	355
138.0806	692
148.0915	710
153.0919	967
170.105	999
