Mass spectrum: Ginkgolide A; LC-ESI-QFT; MS2; CE: 15,30,45 (NCE);  [M+H]+
Name: Ginkgolide A
Class: NA
Formula: C20H24O9
Exact mass: 408.1420
SMILES: CC1C(=O)OC2CC34C5CC(C(C)(C)C)C33C(O)C(=O)OC3OC4(C(=O)O5)C12O
InChI: InChI=1S/C20H24O9/c1-7-12(22)26-10-6-17-9-5-8(16(2,3)4)18(17)11(21)13(23)28-15(18)29-20(17,14(24)27-9)19(7,10)25/h7-11,15,21,25H,5-6H2,1-4H3
Instrument: QE Focus, Thermo Scientfic; UPLC I-Class, Waters
Instrument type: LC-ESI-QFT
Ms type: MS2
Ion mode: POSITIVE
Ionization: ESI
Collision energy: 15,30,45 (NCE)
Column name: Acquity CSHC18
Retention time: 2.071 min
Base peak: 409.1489
Precursor m/z: 409.1489
Precursor type: [M+H]+
Precursor intensity: 28213510
m/z	relative intensity
83.0498	171
107.0675	182
145.0828	184
159.0988	186
161.0775	187
173.0777	214
175.0935	249
179.0777	266
187.0938	292
189.0728	295
197.1135	413
199.0933	437
203.0882	464
209.1142	484
215.0884	545
225.1092	699
227.1251	701
231.0839	733
241.104	749
243.1198	783
245.1	805
253.1039	832
255.1201	837
271.0972	895
273.1308	999
