Mass spectrum: DL-O-Phosphoserine; LC-ESI-ITFT; MS2; CE: 60;  [M-H]-
Name: DL-O-Phosphoserine
Class: Organic acids and derivatives; Carboxylic acids and derivatives; Amino acids, peptides, and analogues
Formula: C3H8NO6P
Exact mass: 185.00892
SMILES: NC(COP(O)(O)=O)C(O)=O
InChI: InChI=1S/C3H8NO6P/c4-2(3(5)6)1-10-11(7,8)9/h2H,1,4H2,(H,5,6)(H2,7,8,9)
Instrument: Thermo Scientific Q-Exactive Focus
Instrument type: LC-ESI-ITFT
Ms type: MS2
Ion mode: NEGATIVE
Ionization: ESI
Collision energy: 60
Column name: Acquity CSHC18
Retention time: 2.029 min
Base peak: 184.00165
Precursor m/z: 184.00165
Precursor type: [M-H]-
m/z	relative intensity
61.2773	1
62.9629	43
78.9392	1
78.9578	999
126.3546	1
157.5785	1
