Mass spectrum: LITHOCHOLYLTAURINE; LC-ESI-QFT; MS2; CE: 30eV;  [M-H]-
Name: LITHOCHOLYLTAURINE
Class: NA
Formula: C26H45NO5S
Exact mass: 483.30184
SMILES: C[C@H](CCC(=O)NCCS(O)(=O)=O)C1CCC2C3CCC4C[C@H](O)CC[C@]4(C)C3CC[C@]12C
InChI: InChI=1S/C26H45NO5S/c1-17(4-9-24(29)27-14-15-33(30,31)32)21-7-8-22-20-6-5-18-16-19(28)10-12-25(18,2)23(20)11-13-26(21,22)3/h17-23,28H,4-16H2,1-3H3,(H,27,29)(H,30,31,32)/t17-,18?,19-,20?,21?,22?,23?,25+,26-/m1/s1
Instrument: Q-Exactive Orbitrap, Thermo Scientfic; Ultimate 3000 HPLC, Thermo Scientfic
Instrument type: LC-ESI-QFT
Ms type: MS2
Ion mode: NEGATIVE
Ionization: ESI
Collision energy: 30eV
Column name: Acquity CSHC18
Retention time: 10.306 min
Base peak: 482.2946
Precursor m/z: 482.2946
Precursor type: [M-H]-
Precursor intensity: 140
m/z	relative intensity
79.935	1
79.9556	1
84.0515	1
129.2657	1
219.2511	1
238.573	1
241.9848	1
357.0695	1
482.2946	999
483.2979	159
