Mass spectrum: 11-beta-Prostaglandin F2-alpha Ethanolamide; ESI-TOF; MS2; CE: 6.0000000;  [M+H]+
Name: 11-beta-Prostaglandin F2-alpha Ethanolamide
Class: NA
Formula: C22H39NO5
Exact mass: 397.28282
SMILES: OCCN([H])C(CCC/C=C\C[C@@H]1[C@@H](/C=C/[C@@H](O)CCCCC)[C@@H](O)C[C@@H]1O)=O
InChI: InChI=1S/C22H39NO5/c1-2-3-6-9-17(25)12-13-19-18(20(26)16-21(19)27)10-7-4-5-8-11-22(28)23-14-15-24/h4,7,12-13,17-21,24-27H,2-3,5-6,8-11,14-16H2,1H3,(H,23,28)/b7-4-,13-12+/t17-,18+,19+,20-,21-/m0/s1
Instrument: waters xevo g2 TOF
Instrument type: ESI-TOF
Ms type: MS2
Ion mode: POSITIVE
Ionization: ESI
Collision energy: 6.0000000
Column name: Acquity CSHC18
Retention time: 3.124 min
Base peak: 398.29082
Precursor m/z: 398.29082
Precursor type: [M+H]+
m/z	relative intensity
113.9653	46
128.0709	3
137.9683	2
173.1328	1
174.1136	10
187.604	53
199.1319	1
200.6121	33
201.1211	3
209.1247	1
209.6178	72
236.1621	4
241.1946	3
248.1656	2
250.1803	4
255.2118	5
273.2198	1
283.2058	106
284.2115	16
301.215	17
306.2442	15
307.2414	2
308.2592	148
309.263	25
310.2626	2
318.243	121
319.2435	27
326.2441	4
336.2567	125
337.2579	23
344.2592	999
345.2611	258
362.2697	401
363.2738	89
364.2765	10
380.2803	701
381.2816	180
382.2858	25
383.2843	2
388.1796	2
389.169	14
390.1737	77
391.1754	14
392.1734	2
