Mass spectrum: L-Serine; LC-ESI-ITFT; MS2; CE: 60;  [M+H]+
Name: L-Serine
Class: Organic acids and derivatives; Carboxylic acids and derivatives; Amino acids, peptides, and analogues
Formula: C3H7NO3
Exact mass: 105.04259
SMILES: N[C@@H](CO)C(O)=O
InChI: InChI=1S/C3H7NO3/c4-2(1-5)3(6)7/h2,5H,1,4H2,(H,6,7)/t2-/m0/s1
Instrument: Thermo Scientific Q-Exactive Focus
Instrument type: LC-ESI-ITFT
Ms type: MS2
Ion mode: POSITIVE
Ionization: ESI
Collision energy: 60
Column name: Acquity CSHC18
Retention time: 2.014 min
Base peak: 106.04987
Precursor m/z: 106.04987
Precursor type: [M+H]+
m/z	relative intensity
66.0732	736
71.7409	841
83.6272	732
97.6682	781
103.2945	746
109.8048	809
113.6947	727
117.2213	737
121.2916	999
122.5565	788
