Mass spectrum: PHOSPHORYLCHOLINE; LC-ESI-QFT; MS2; CE: 30eV;  [M+H]+
Name: PHOSPHORYLCHOLINE
Class: NA
Formula: C5H14NO4P
Exact mass: 183.06604
SMILES: C[N+](C)(CCOP([O-])(O)=O)C
InChI: InChI=1S/C5H14NO4P/c1-6(2,3)4-5-10-11(7,8)9/h4-5H2,1-3H3,(H-,7,8,9)
Instrument: Q-Exactive Orbitrap, Thermo Scientfic; Ultimate 3000 HPLC, Thermo Scientfic
Instrument type: LC-ESI-QFT
Ms type: MS2
Ion mode: POSITIVE
Ionization: ESI
Collision energy: 30eV
Column name: Acquity CSHC18
Retention time: 0.535 min
Base peak: 184.0733
Precursor m/z: 184.0733
Precursor type: [M+H]+
Precursor intensity: 150
m/z	relative intensity
56.4977	1
56.9431	1
58.0658	1
60.0816	54
64.7587	1
71.0738	7
72.9379	2
79.8056	1
84.9605	7
86.0972	281
86.7566	1
87.1005	2
87.135	1
95.9892	1
97.9694	1
98.9848	10
99.97	1
104.1076	4
111.1178	1
112.5679	1
113.9607	2
113.9643	41
114.9611	1
114.9646	6
114.9677	6
116.9725	8
117.9803	70
118.9633	1
122.3532	1
125.0004	155
126.0036	1
131.3754	1
131.9747	23
132.975	1
139.9883	3
141.9587	5
141.9798	1
142.9625	1
143.9592	2
146.519	1
155.9752	2
156.9751	2
159.9699	9
159.9759	1
160.9729	5
161.9698	15
179.9803	1
180.9155	1
184.0739	999
185.0696	1
185.0773	33
