Mass spectrum: Lyso-PAF C16; LC-ESI-ITFT; MS2; CE: 40;  [M+H]+
Name: Lyso-PAF C16
Class: NA
Formula: C24H52NO6P
Exact mass: 481.35323
SMILES: CCCCCCCCCCCCCCCCOCC(COP(=O)([O-])OCC[N+](C)(C)C)O
InChI: InChI=1S/C24H52NO6P/c1-5-6-7-8-9-10-11-12-13-14-15-16-17-18-20-29-22-24(26)23-31-32(27,28)30-21-19-25(2,3)4/h24,26H,5-23H2,1-4H3
Instrument: Thermo Scientific Q-Exactive Focus
Instrument type: LC-ESI-ITFT
Ms type: MS2
Ion mode: POSITIVE
Ionization: ESI
Collision energy: 40
Column name: Acquity CSHC18
Retention time: 1.466 min
Base peak: 482.36050
Precursor m/z: 482.36050
Precursor type: [M+H]+
m/z	relative intensity
57.0704	19
60.0813	100
71.0734	20
71.0859	13
75.0444	13
85.1015	10
86.0968	287
104.1073	999
124.9998	182
184.0732	308
