Mass spectrum: S-CARBOXYMETHYLCYSTEINE; LC-ESI-QTOF; MS2; CE: 20;  [M+H]+
Name: S-CARBOXYMETHYLCYSTEINE
Class: NA
Formula: C5H9NO4S
Exact mass: 179.02523
SMILES: NC(CSCC(O)=O)C(O)=O
InChI: InChI=1S/C5H9NO4S/c6-3(5(9)10)1-11-2-4(7)8/h3H,1-2,6H2,(H,7,8)(H,9,10)
Instrument: Agilent 6530Â Q-TOF LC/MS
Instrument type: LC-ESI-QTOF
Ms type: MS2
Ion mode: POSITIVE
Ionization: ESI
Collision energy: 20
Column name: NA
Retention time: 0.200 min
Base peak: 180.03504
Precursor m/z: 180.03504
Precursor type: [M+H]+
Precursor intensity: 28.5
m/z	relative intensity
44.0586	132
44.9879	143
47.0011	148
55.026	152
59.0045	203
61.0156	224
62.9921	242
73.0165	246
74.0214	267
86.9977	279
88.0351	351
89.0274	384
102.9924	517
105	613
116.0187	769
117.0085	999
134.0235	132
