Mass spectrum: (20R,22S,25S)-3beta,16alpha-Diacetoxy-22,26-epimino-5alpha-cholestan-20-ol; APCI-ITFT; MS2; CE: 35 CID;  [M+H]+
Name: (20R,22S,25S)-3beta,16alpha-Diacetoxy-22,26-epimino-5alpha-cholestan-20-ol
Class: NA
Formula: C31H51NO5
Exact mass: 517.37672
SMILES: C[C@H](CN1)CC[C@H]1[C@](C)(O)[C@H]2[C@H](OC(C)=O)C[C@@]3([H])[C@]4([H])CC[C@@]5([H])C[C@@H](OC(C)=O)CC[C@]5(C)[C@@]4([H])CC[C@]23C
InChI: InChI=1S/C31H51NO5/c1-18-7-10-27(32-17-18)31(6,35)28-26(37-20(3)34)16-25-23-9-8-21-15-22(36-19(2)33)11-13-29(21,4)24(23)12-14-30(25,28)5/h18,21-28,32,35H,7-17H2,1-6H3/t18-,21-,22-,23+,24-,25-,26+,27-,28-,29-,30-,31-/m0/s1
Instrument: Orbitrap Elite
Instrument type: APCI-ITFT
Ms type: MS2
Ion mode: POSITIVE
Ionization: APCI
Collision energy: 35 CID
Column name: Acquity CSHC18
Retention time: 0.288 min
Base peak: 518.38350
Precursor m/z: 518.38350
Precursor type: [M+H]+
Precursor intensity: 5870514
m/z	relative intensity
255.2113	3
315.2324	4
438.3338	1
439.3404	14
440.2634	1
440.3504	155
441.3537	4
457.3525	9
458.3601	66
459.3629	3
482.3635	18
486.3597	1
499.3595	20
500.3774	999
501.3748	28
