Mass spectrum: Aspartame; ESI-TOF; MS2; CE: 6.0000000;  [M+H]+
Name: Aspartame
Class: NA
Formula: C14H18N2O5
Exact mass: 294.12157
SMILES: COC(=O)C(CC1=CC=CC=C1)NC(=O)C(N)CC(O)=O
InChI: InChI=1S/C14H18N2O5/c1-21-14(20)11(7-9-5-3-2-4-6-9)16-13(19)10(15)8-12(17)18/h2-6,10-11H,7-8,15H2,1H3,(H,16,19)(H,17,18)
Instrument: waters xevo g2 TOF
Instrument type: ESI-TOF
Ms type: MS2
Ion mode: POSITIVE
Ionization: ESI
Collision energy: 6.0000000
Column name: Acquity CSHC18
Retention time: 1.969 min
Base peak: 295.12957
Precursor m/z: 295.12957
Precursor type: [M+H]+
m/z	relative intensity
91.0546	2
120.081	78
121.0662	12
130.0656	1
131.0497	3
137.9877	28
149.0023	1
163.0753	21
164.0789	1
172.0758	3
175.0866	80
176.0887	9
180.1022	999
181.1053	76
182.1074	9
189.1024	10
190.0867	4
200.0709	51
201.0741	6
203.0815	12
204.0848	2
217.0972	53
218.0835	16
219.0864	2
228.0659	26
229.0691	3
235.108	586
236.1116	84
237.1126	16
242.0818	1
245.0923	59
246.0932	16
247.0952	1
249.1238	16
251.1493	4
257.0995	6
260.0921	204
261.0951	32
262.098	4
263.1031	91
264.106	14
265.109	1
277.1186	202
278.119	78
295.1292	993
296.1323	268
