Mass spectrum: 5,6-Dimethylbenzimidazole; LC-ESI-QTOF; MS2; CE: 10;  [M+H]+
Name: 5,6-Dimethylbenzimidazole
Class: NA
Formula: C9H10N2
Exact mass: 146.0844
SMILES: CC1=CC2=C(C=C1C)N=CN2
InChI: InChI=1S/C9H10N2/c1-6-3-8-9(4-7(6)2)11-5-10-8/h3-5H,1-2H3,(H,10,11)
Instrument: Agilent 6560Â Ion Mobility Q-TOF LC/MS
Instrument type: LC-ESI-QTOF
Ms type: MS2
Ion mode: POSITIVE
Ionization: ESI
Collision energy: 10
Column name: Acquity CSHC18
Retention time: 0.200 min
Base peak: 147.0923
Precursor m/z: 147.0923
Precursor type: [M+H]+
Precursor intensity: 196.5
m/z	relative intensity
146.9106	67
146.9148	495
146.919	357
146.9233	191
146.9275	123
146.9317	75
147.0834	42
147.0876	999
147.0918	855
147.0961	461
147.1003	385
147.1045	250
147.1087	61
147.1129	42
147.1171	36
