Mass spectrum: Prostaglandin E2 serinol amide; ESI-TOF; MS2; CE: 0.6458333;  [M+H]+
Name: Prostaglandin E2 serinol amide
Class: NA
Formula: C23H39NO6
Exact mass: 425.27774
SMILES: O=C1[C@H](C/C=C\CCCC(N([H])C(CO)CO)=O)[C@@H](/C=C/[C@@H](O)CCCCC)[C@H](O)C1
InChI: InChI=1S/C23H39NO6/c1-2-3-6-9-18(27)12-13-20-19(21(28)14-22(20)29)10-7-4-5-8-11-23(30)24-17(15-25)16-26/h4,7,12-13,17-20,22,25-27,29H,2-3,5-6,8-11,14-16H2,1H3,(H,24,30)/b7-4-,13-12+/t18-,19+,20+,22+/m0/s1
Instrument: waters xevo g2 TOF
Instrument type: ESI-TOF
Ms type: MS2
Ion mode: POSITIVE
Ionization: ESI
Collision energy: 0.6458333
Column name: Acquity CSHC18
Retention time: 3.072 min
Base peak: 426.28574
Precursor m/z: 426.28574
Precursor type: [M+H]+
m/z	relative intensity
74.0602	390
81.0703	37
92.0718	775
93.0722	57
105.071	43
107.0865	27
109.1012	13
117.0717	19
119.0859	34
121.1012	26
123.1168	16
128.0716	216
129.0718	32
135.1173	16
145.1008	21
147.0816	31
155.0863	19
157.1012	30
159.1187	21
161.1337	42
163.1471	18
169.103	34
171.1162	23
173.1325	27
185.0941	12
187.1506	23
189.0859	10
191.1409	10
197.1345	16
203.1796	36
214.6096	3
215.1358	94
222.5957	2
223.6147	2
224.1161	2
224.6155	2
227.1785	27
229.1934	28
231.6	2
245.1885	49
253.1961	18
255.1739	18
257.1895	35
258.0614	17
271.2036	23
273.1851	22
281.1893	67
298.2216	13
299.2016	134
317.2111	31
318.2404	71
320.2589	50
324.1145	7
338.2664	18
346.2361	123
347.2451	20
362.2687	101
364.2454	2
365.2449	2
372.2536	959
373.2563	253
380.2341	17
388.1254	11
389.1395	13
390.2646	999
391.2678	240
392.2708	31
398.1991	115
399.2025	25
408.2755	260
409.2794	64
410.2815	2
411.2802	2
414.216	17
426.2861	2
