Mass spectrum: Palmitoylethanolamide; ESI-TOF; MS2; CE: 0.6458333;  [M+H]+
Name: Palmitoylethanolamide
Class: NA
Formula: C18H37NO2
Exact mass: 299.28243
SMILES: CCCCCCCCCCCCCCCC(=O)NCCO
InChI: InChI=1S/C18H37NO2/c1-2-3-4-5-6-7-8-9-10-11-12-13-14-15-18(21)19-16-17-20/h20H,2-17H2,1H3,(H,19,21)
Instrument: waters xevo g2 TOF
Instrument type: ESI-TOF
Ms type: MS2
Ion mode: POSITIVE
Ionization: ESI
Collision energy: 0.6458333
Column name: Acquity CSHC18
Retention time: 6.440 min
Base peak: 300.29043
Precursor m/z: 300.29043
Precursor type: [M+H]+
m/z	relative intensity
62.061	74
71.0861	24
85.102	32
97.1025	10
97.9694	10
169.623	27
178.6282	2
282.2796	95
283.2644	178
284.2673	32
300.2905	141
301.2936	28
302.2981	2
306.3002	42
307.2984	8
308.2266	29
309.2162	9
319.2639	83
319.7657	35
320.2658	9
322.2724	999
323.2756	217
324.2813	25
338.2412	115
339.2406	24
354.2091	12
384.2429	39
385.2444	9
399.2126	1
468.9056	44
469.4061	27
469.9076	7
621.5537	7
622.5592	4
623.5571	4
624.5464	1
637.5184	25
638.5221	10
652.4858	24
653.4901	18
654.4936	6
655.4918	3
683.5256	15
684.5283	6
685.5325	1
