Mass spectrum: Alpha-Lactose; ESI-TOF; MS2; CE: 6.0000000;  [M+H]+
Name: Alpha-Lactose
Class: NA
Formula: C12H22O11
Exact mass: 342.11621
SMILES: OCC1OC(OC2C(CO)OC(O)C(O)C2O)C(O)C(O)C1O
InChI: InChI=1S/C12H22O11/c13-1-3-5(15)6(16)9(19)12(22-3)23-10-4(2-14)21-11(20)8(18)7(10)17/h3-20H,1-2H2
Instrument: waters xevo g2 TOF
Instrument type: ESI-TOF
Ms type: MS2
Ion mode: POSITIVE
Ionization: ESI
Collision energy: 6.0000000
Column name: Acquity CSHC18
Retention time: 0.556 min
Base peak: 343.12421
Precursor m/z: 343.12421
Precursor type: [M+H]+
m/z	relative intensity
73.0302	2
91.0398	256
97.0291	206
129.0519	75
138.9906	53
138.991	41
142.9614	32
145.0501	899
154.9908	589
163.0606	999
204.0867	66
233.9837	98
325.1131	475
337.0207	2
343.1255	348
344.1271	33
362.1011	82
365.1063	806
366.1114	89
396.036	492
397.0427	131
456.0572	126
685.2427	77
707.22	293
708.226	48
709.2095	58
738.1509	234
739.1587	90
740.1578	22
