Mass spectrum: MELATONIN; LC-ESI-QTOF; MS2; CE: 40;  [M-H]-
Name: MELATONIN
Class: NA
Formula: C13H16N2O2
Exact mass: 232.12118
SMILES: COC1=CC2=C(NC=C2CCNC(C)=O)C=C1
InChI: InChI=1S/C13H16N2O2/c1-9(16)14-6-5-10-8-15-13-4-3-11(17-2)7-12(10)13/h3-4,7-8,15H,5-6H2,1-2H3,(H,14,16)
Instrument: Agilent 6530Â Q-TOF LC/MS
Instrument type: LC-ESI-QTOF
Ms type: MS2
Ion mode: NEGATIVE
Ionization: ESI
Collision energy: 40
Column name: NA
Retention time: 0.200 min
Base peak: 231.11219
Precursor m/z: 231.11219
Precursor type: [M-H]-
Precursor intensity: 123
m/z	relative intensity
42.0006	125
58.0306	129
118.0274	181
144.0665	186
145.0456	999
