Mass spectrum: Lysine; LC-ESI-QTOF; MS2; CE: 10;  [M-H]-
Name: Lysine
Class: NA
Formula: C6H14N2O2
Exact mass: 146.1055
SMILES: C(CCN)CC(C(=O)O)N
InChI: InChI=1S/C6H14N2O2/c7-4-2-1-3-5(8)6(9)10/h5H,1-4,7-8H2,(H,9,10)
Instrument: impact II
Instrument type: LC-ESI-QTOF
Ms type: MS2
Ion mode: NEGATIVE
Ionization: ESI
Collision energy: 10
Column name: Acquity CSHC18
Retention time: 1.938 min
Base peak: 145.0983
Precursor m/z: 145.0983
Precursor type: [M-H]-
m/z	relative intensity
97.0777	17
99.0922	7
128.0719	10
145.0984	999
145.1146	11
146.1015	78
