Mass spectrum: Harmane; LC-ESI-QTOF; MS2; CE: 15.00;  [M+H]+
Name: Harmane
Class: NA
Formula: C12H10N2
Exact mass: 182.0844
SMILES: CC1=NC=CC2=C1NC3=CC=CC=C23
InChI: InChI=1S/C12H10N2/c1-8-12-10(6-7-13-8)9-4-2-3-5-11(9)14-12/h2-7,14H,1H3
Instrument: Bruker MicrOTOF-Q
Instrument type: LC-ESI-QTOF
Ms type: MS2
Ion mode: POSITIVE
Ionization: ESI
Collision energy: 15.00
Column name: Acquity CSHC18
Retention time: NA
Base peak: 183.0917
Precursor m/z: 183.0917
Precursor type: [M+H]+
m/z	relative intensity
168.068	17
182.0836	18
183.0922	126
184.0944	999
