Mass spectrum: Spermine; LC-ESI-QTOF; MS2; CE: 15.00;  [M+H]+
Name: Spermine
Class: NA
Formula: C10H26N4
Exact mass: 202.2157
SMILES: C(CCNCCCN)CNCCCN
InChI: InChI=1S/C10H26N4/c11-5-3-9-13-7-1-2-8-14-10-4-6-12/h13-14H,1-12H2
Instrument: Bruker MicrOTOF-Q
Instrument type: LC-ESI-QTOF
Ms type: MS2
Ion mode: POSITIVE
Ionization: ESI
Collision energy: 15.00
Column name: Acquity CSHC18
Retention time: NA
Base peak: 203.2230
Precursor m/z: 203.2230
Precursor type: [M+H]+
m/z	relative intensity
112.1099	999
112.2587	3
112.3705	3
113.1127	69
115.1186	4
127.1241	3
129.1375	433
130.1406	39
203.2224	19
204.224	3
