Mass spectrum: ITACONATE; LC-ESI-QTOF; MS2; CE: 20;  [M-H]-
Name: ITACONATE
Class: NA
Formula: C5H6O4
Exact mass: 130.02661
SMILES: OC(=O)CC(=C)C(O)=O
InChI: InChI=1S/C5H6O4/c1-3(5(8)9)2-4(6)7/h1-2H2,(H,6,7)(H,8,9)
Instrument: Agilent 6530Â Q-TOF LC/MS
Instrument type: LC-ESI-QTOF
Ms type: MS2
Ion mode: NEGATIVE
Ionization: ESI
Collision energy: 20
Column name: NA
Retention time: 0.200 min
Base peak: 129.01939
Precursor m/z: 129.01939
Precursor type: [M-H]-
Precursor intensity: 139
m/z	relative intensity
41.0563	793
85.0508	999
