Mass spectrum: (2-AMINOETHYL)PHOSPHONATE; LC-ESI-QTOF; MS2; CE: 40;  [M+H]+
Name: (2-AMINOETHYL)PHOSPHONATE
Class: NA
Formula: C2H8NO3P
Exact mass: 125.0242
SMILES: NCCP(O)(O)=O
InChI: InChI=1S/C2H8NO3P/c3-1-2-7(4,5)6/h1-3H2,(H2,4,5,6)
Instrument: Agilent 6530Â Q-TOF LC/MS
Instrument type: LC-ESI-QTOF
Ms type: MS2
Ion mode: POSITIVE
Ionization: ESI
Collision energy: 40
Column name: NA
Retention time: 0.200 min
Base peak: 126.03119
Precursor m/z: 126.03119
Precursor type: [M+H]+
Precursor intensity: 84.5
m/z	relative intensity
40.9702	55
46.9682	61
62.9629	79
64.9778	170
69.0421	251
78.993	588
79.9867	733
80.9738	999
