Mass spectrum: N-Acetyl-L-arginine; LC-ESI-QTOF; MS2; CE: -10, -35, -60V;  [M-H]-
Name: N-Acetyl-L-arginine
Class: NA
Formula: C8H16N4O3
Exact mass: 216.1222
SMILES: CC(=O)NC(CCCN=C(N)N)C(=O)O
InChI: InChI=1S/C8H16N4O3/c1-5(13)12-6(7(14)15)3-2-4-11-8(9)10/h6H,2-4H2,1H3,(H,12,13)(H,14,15)(H4,9,10,11)
Instrument: TripleToF 5600; Sciex
Instrument type: LC-ESI-QTOF
Ms type: MS2
Ion mode: NEGATIVE
Ionization: ESI
Collision energy: -10, -35, -60V
Column name: Acquity CSHC18
Retention time: 0.731 min
Base peak: 215.1174
Precursor m/z: 215.1174
Precursor type: [M-H]-
Precursor intensity: 261777.5
m/z	relative intensity
83.0593	8
112.089	18
119.0306	5
119.0414	5
129.1009	55
131.0829	213
132.0852	13
154.0983	11
156.0795	41
173.0972	667
174.096	96
174.1109	92
198.0889	57
215.1148	999
