Mass spectrum: Tiliroside; LC-ESI-QTOF; MS2; CE: 50eV;  [M+H]+
Name: Tiliroside
Class: Flavonol
Formula: C30H26O13
Exact mass: 594.1373
SMILES: C1=CC(=CC=C1C=CC(=O)OCC2C(C(C(C(O2)OC3=C(OC4=CC(=CC(=C4C3=O)O)O)C5=CC=C(C=C5)O)O)O)O)O
InChI: InChI=1S/C30H26O13/c31-16-6-1-14(2-7-16)3-10-22(35)40-13-21-24(36)26(38)27(39)30(42-21)43-29-25(37)23-19(34)11-18(33)12-20(23)41-28(29)15-4-8-17(32)9-5-15/h1-12,21,24,26-27,30-34,36,38-39H,13H2
Instrument: TIMS-TOF Pro, Bruker Daltonik; Elute UHPLC System, Bruker Daltonik
Instrument type: LC-ESI-QTOF
Ms type: MS2
Ion mode: POSITIVE
Ionization: ESI
Collision energy: 50eV
Column name: Acquity CSHC18
Retention time: 6.552 min
Base peak: 595.1415
Precursor m/z: 595.1415
Precursor type: [M+H]+
Precursor intensity: 77386.25
m/z	relative intensity
24.4438	1
37.3775	1
62.3698	1
81.034	3
91.0537	2
99.0366	1
108.0084	1
119.0476	10
120.0538	2
127.0403	2
147.0302	19
147.0437	999
147.3883	5
148.0304	2
148.0478	40
149.0495	1
165.0544	32
286.983	2
287.0529	186
288.0322	2
288.0565	37
289.0564	3
291.0858	34
292.0882	9
293.0842	1
309.0529	2
309.0919	29
310.0969	18
311.098	1
312.2071	1
329.0616	2
