Mass spectrum: 3-Ara-Glc-Ara-Hederagenin; ESI-QTOF; MS2; CE: 30 eV;  [M-H]-
Name: 3-Ara-Glc-Ara-Hederagenin
Class: Saponin
Formula: C46H74O17
Exact mass: 898.4926
SMILES: CC1(C)CCC2(CCC3(C)C(=CCC4(C5(C)CCC(C(C)(CO)C5(CCC43C)[H])(OC6(C(C(C(CO6)(O)[H])(O)[H])(OC7(C(C(C(C(CO)(O7)[H])(O)[H])(O)[H])(OC8(C(C(C(CO8)(O)[H])(O)[H])(O)[H])[H])[H])[H])[H])[H])[H])[H])C2(C1)[H])C(=O)O
InChI: InChI=1S/C46H74O17/c1-41(2)13-15-46(40(56)57)16-14-44(5)22(23(46)17-41)7-8-28-42(3)11-10-29(43(4,21-48)27(42)9-12-45(28,44)6)61-38-35(31(52)25(50)20-59-38)63-39-36(33(54)32(53)26(18-47)60-39)62-37-34(55)30(51)24(49)19-58-37/h7,23-39,47-55H,8-21H2,1-6H3,(H,56,57)
Instrument: Synapt (HDMS 1st gen)
Instrument type: ESI-QTOF
Ms type: MS2
Ion mode: NEGATIVE
Ionization: ESI
Collision energy: 30 eV
Column name: Acquity CSHC18
Retention time: 25.984 min
Base peak: 897.4899
Precursor m/z: 897.4899
Precursor type: [M-H]-
Precursor intensity: 110.88
m/z	relative intensity
603.3983	15
747.4306	30
748.4242	33
765.4362	41
766.4399	52
767.5156	90
897.4837	999
897.9784	15
