Mass spectrum: HISTIDINOL; LC-ESI-QFT; MS2; CE: 30eV;  [M+H]+
Name: HISTIDINOL
Class: NA
Formula: C6H11N3O
Exact mass: 141.09021
SMILES: N[C@H](CO)CC1=CN=CN1
InChI: InChI=1S/C6H11N3O/c7-5(3-10)1-6-2-8-4-9-6/h2,4-5,10H,1,3,7H2,(H,8,9)/t5-/m0/s1
Instrument: Q-Exactive Orbitrap, Thermo Scientfic; Ultimate 3000 HPLC, Thermo Scientfic
Instrument type: LC-ESI-QFT
Ms type: MS2
Ion mode: POSITIVE
Ionization: ESI
Collision energy: 30eV
Column name: Acquity CSHC18
Retention time: 0.545 min
Base peak: 142.0975
Precursor m/z: 142.0975
Precursor type: [M+H]+
Precursor intensity: 143
m/z	relative intensity
54.0347	7
55.9352	52
56.0503	45
56.9431	999
57.9436	12
60.0453	65
65.3231	6
69.0456	76
72.9379	353
74.9536	212
80.0503	17
82.0489	49
83.0611	303
84.0646	9
87.9225	7
88.2979	8
90.9484	167
95.0611	612
95.2985	6
96.0644	9
97.0767	16
98.9699	12
98.9727	28
99.0561	14
107.061	163
114.9641	68
114.9683	70
115.9799	43
116.1768	7
118.9432	186
118.9681	13
119.9756	8
122.1692	8
125.0714	738
125.0842	13
125.086	10
125.0908	199
126.0749	17
131.9747	452
136.9538	49
141.9592	49
141.984	12
142.9324	18
143.1011	123
144.157	7
159.9695	18
