Mass spectrum: 2-hydroxy-3-methylpentanoic acid; LC-ESI-QTOF; MS2; CE: -10, -35, -60V;  [M-H]-
Name: 2-hydroxy-3-methylpentanoic acid
Class: NA
Formula: C6H12O3
Exact mass: 132.0786
SMILES: CCC(C)C(C(=O)O)O
InChI: InChI=1S/C6H12O3/c1-3-4(2)5(7)6(8)9/h4-5,7H,3H2,1-2H3,(H,8,9)
Instrument: TripleToF 5600; Sciex
Instrument type: LC-ESI-QTOF
Ms type: MS2
Ion mode: NEGATIVE
Ionization: ESI
Collision energy: -10, -35, -60V
Column name: Acquity CSHC18
Retention time: 9.018 min
Base peak: 131.0725
Precursor m/z: 131.0725
Precursor type: [M-H]-
Precursor intensity: 428524.9
m/z	relative intensity
70.0393	25
83.053	29
85.0656	680
86.0699	65
116.9279	25
117.933	26
119.0348	53
129.0578	38
131.0638	96
131.0718	999
