Mass spectrum: Eupatolide-Glutathione; LC-ESI-ITFT; MS2; CE: 50eV;  [M+H]+
Name: Eupatolide-Glutathione
Class: Sesquiterpenelactone; Germacrolide
Formula: C25H37N3O9S
Exact mass: 555.2251
SMILES: O=C(NCC(O)=O)C(NC(CC[C@@H](C(O)=O)N)=O)CSCC(C1[C@H](O2)/C=C(C)/CC/C=C(C)/C[C@H]1O)C2=O
InChI: InChI=1S/C25H37N3O9S/c1-13-4-3-5-14(2)9-19-22(18(29)8-13)15(25(36)37-19)11-38-12-17(23(33)27-10-21(31)32)28-20(30)7-6-16(26)24(34)35/h4,9,15-19,22,29H,3,5-8,10-12,26H2,1-2H3,(H,27,33)(H,28,30)(H,31,32)(H,34,35)/b13-4+,14-9+/t15?,16-,17?,18+,19+,22?/m0/s1
Instrument: Q Exactive Plus, ThermoFisher Scientific
Instrument type: LC-ESI-ITFT
Ms type: MS2
Ion mode: POSITIVE
Ionization: ESI
Collision energy: 50eV
Column name: Acquity CSHC18
Retention time: 5.655 min
Base peak: 556.2296
Precursor m/z: 556.2296
Precursor type: [M+H]+
Precursor intensity: 125863400
m/z	relative intensity
95.0674	10
99.041	20
109.0808	24
116.0253	30
121.0825	30
135.0984	32
145.0799	34
146.0842	34
147.0986	35
151.066	38
153.0783	42
157.0824	48
159.0975	52
161.0895	55
163.0528	55
171.0987	64
175.0666	65
177.0994	67
181.0734	108
185.0966	114
187.1048	146
189.0807	161
191.0692	179
199.0911	245
211.0912	269
219.1294	383
245.0973	999
