Mass spectrum: Tomatine; LC-ESI-ITFT; MS2; CE: 45eV;  [M+H]+
Name: Tomatine
Class: glycoalkaloid
Formula: C50H83NO21
Exact mass: 1033.5458
SMILES: CC1CCC2(C(C3C(O2)CC4C3(CCC5C4CCC6C5(CCC(C6)OC7C(C(C(C(O7)CO)OC8C(C(C(C(O8)CO)O)OC9C(C(C(CO9)O)O)O)OC2C(C(C(C(O2)CO)O)O)O)O)O)C)C)C)NC1
InChI: InChI=1S/C50H83NO21/c1-20-7-12-50(51-15-20)21(2)32-28(72-50)14-26-24-6-5-22-13-23(8-10-48(22,3)25(24)9-11-49(26,32)4)65-45-40(63)37(60)41(31(18-54)68-45)69-47-43(71-46-39(62)36(59)34(57)29(16-52)66-46)42(35(58)30(17-53)67-47)70-44-38(61)33(56)27(55)19-64-44/h20-47,51-63H,5-19H2,1-4H3
Instrument: LTQ Orbitrap XL, Thermo Scientfic; Dionex Ultimate 300
Instrument type: LC-ESI-ITFT
Ms type: MS2
Ion mode: POSITIVE
Ionization: ESI
Collision energy: 45eV
Column name: Alltima C18
Retention time: 22.82 min
Base peak: 1034.5480
Precursor m/z: 1034.5480
Precursor type: [M+H]+
m/z	relative intensity
370.418	101
396.4254	291
414.4935	999
433.103	93
488.2932	414
559.176	247
576.3386	721
686.6577	445
704.537	768
738.5558	177
852.6364	132
870.7667	54
900.545	735
915.7955	104
998.5774	852
