Mass spectrum: 17-phenyl trinor-13,14-dihydro Prostaglandin A2; ESI-TOF; MS2; CE: 6.0000000;  [M+H]+
Name: 17-phenyl trinor-13,14-dihydro Prostaglandin A2
Class: NA
Formula: C23H30O4
Exact mass: 370.21441
SMILES: O=C1[C@H](C/C=C\CCCC(O)=O)[C@@H](CC[C@@H](O)CCC2=CC=CC=C2)C=C1
InChI: InChI=1S/C23H30O4/c24-20(15-12-18-8-4-3-5-9-18)16-13-19-14-17-22(25)21(19)10-6-1-2-7-11-23(26)27/h1,3-6,8-9,14,17,19-21,24H,2,7,10-13,15-16H2,(H,26,27)/b6-1-/t19-,20-,21+/m0/s1
Instrument: waters xevo g2 TOF
Instrument type: ESI-TOF
Ms type: MS2
Ion mode: POSITIVE
Ionization: ESI
Collision energy: 6.0000000
Column name: Acquity CSHC18
Retention time: 4.213 min
Base peak: 371.22241
Precursor m/z: 371.22241
Precursor type: [M+H]+
m/z	relative intensity
105.0711	6
169.1019	17
174.0888	13
183.0956	23
185.1332	21
187.1126	27
189.1109	3
191.1032	4
193.1134	2
195.117	1
196.0838	14
205.1051	39
205.5905	21
206.1257	6
207.1228	27
209.1334	9
231.139	1
233.1315	5
249.1815	2
251.1432	14
269.153	9
275.179	6
293.1894	11
299.1802	23
301.1106	4
307.2035	6
311.2007	109
312.2028	21
313.21	2
317.1908	182
318.1938	4
319.1943	4
327.381	3
329.2066	5
335.201	466
336.205	105
353.2112	999
354.2122	133
371.2224	355
372.2099	88
