Mass spectrum: Heliangin-3-O-acetyl; LC-ESI-ITFT; MS2; CE: 50eV;  [M+H]+
Name: Heliangin-3-O-acetyl
Class: Sesquiterpenelactone; Heliangolide
Formula: C22H28O7
Exact mass: 404.1835
SMILES: C\C=C(/C)C(=O)O[C@@H]2C[C@@]3(C)O[C@@H]3C[C@H](OC(C)=O)C(C)=C[C@@H]1OC(=O)C(=C)[C@@H]12
InChI: InChI=1S/C22H28O7/c1-7-11(2)20(24)28-17-10-22(6)18(29-22)9-15(26-14(5)23)12(3)8-16-19(17)13(4)21(25)27-16/h7-8,15-19H,4,9-10H2,1-3,5-6H3/b11-7+,12-8?/t15-,16-,17+,18+,19-,22+/m0/s1
Instrument: Q Exactive Plus, ThermoFisher Scientific
Instrument type: LC-ESI-ITFT
Ms type: MS2
Ion mode: POSITIVE
Ionization: ESI
Collision energy: 50eV
Column name: Acquity CSHC18
Retention time: 7.566 min
Base peak: 405.1905
Precursor m/z: 405.1905
Precursor type: [M+H]+
Precursor intensity: 217453200
m/z	relative intensity
123.0627	41
145.0831	146
149.0778	172
157.0825	181
159.0977	212
165.0728	213
171.0984	218
173.0959	233
175.0926	242
183.099	282
185.0771	404
189.0906	592
201.1089	999
