Mass spectrum: 2-Nitrophenol; LC-ESI-ITFT; MS2; CE: 40;  [M-H]-
Name: 2-Nitrophenol
Class: NA
Formula: C6H5NO3
Exact mass: 139.02694
SMILES: C1=CC=C(C(=C1)[N+](=O)[O-])O
InChI: InChI=1S/C6H5NO3/c8-6-4-2-1-3-5(6)7(9)10/h1-4,8H
Instrument: Thermo Scientific Q-Exactive Focus
Instrument type: LC-ESI-ITFT
Ms type: MS2
Ion mode: NEGATIVE
Ionization: ESI
Collision energy: 40
Column name: Acquity CSHC18
Retention time: 1.479 min
Base peak: 138.01967
Precursor m/z: 138.01967
Precursor type: [M-H]-
m/z	relative intensity
65.002	999
70.1013	570
73.813	462
78.7571	519
78.7582	532
87.294	476
92.5154	603
108.0204	826
142.7499	473
145.6029	469
