Mass spectrum: DEOXYCHOLATE; LC-ESI-QFT; MS2; CE: 30eV;  [M-H]-
Name: DEOXYCHOLATE
Class: NA
Formula: C24H40O4
Exact mass: 392.29266
SMILES: [H][C@@]12CC[C@H]([C@H](C)CCC(O)=O)[C@@]1(C)[C@@H](O)C[C@@]1([H])[C@@]2([H])CC[C@]2([H])C[C@H](O)CC[C@]12C
InChI: InChI=1S/C24H40O4/c1-14(4-9-22(27)28)18-7-8-19-17-6-5-15-12-16(25)10-11-23(15,2)20(17)13-21(26)24(18,19)3/h14-21,25-26H,4-13H2,1-3H3,(H,27,28)/t14-,15-,16-,17+,18-,19+,20+,21+,23+,24-/m1/s1
Instrument: Q-Exactive Orbitrap, Thermo Scientfic; Ultimate 3000 HPLC, Thermo Scientfic
Instrument type: LC-ESI-QFT
Ms type: MS2
Ion mode: NEGATIVE
Ionization: ESI
Collision energy: 30eV
Column name: Acquity CSHC18
Retention time: 11.200 min
Base peak: 391.2854
Precursor m/z: 391.2854
Precursor type: [M-H]-
Precursor intensity: 120
m/z	relative intensity
52.6497	3
52.6745	4
52.9521	3
52.9536	3
70.2177	4
70.794	3
71.1109	4
75.2355	3
76.5916	4
93.4757	4
103.1932	4
111.5904	4
139.5388	4
159.2962	5
170.8079	4
235.557	4
304.5107	4
327.2363	6
327.2686	38
329.2853	24
343.2636	17
345.2799	139
347.2951	63
355.2647	37
358.4459	5
365.3058	106
366.3088	11
373.2733	8
392.2888	999
