Mass spectrum: D-pantothenic acid; LC-ESI-QTOF; MS2; CE: 35.00;  [M+H]+
Name: D-pantothenic acid
Class: NA
Formula: C9H17NO5
Exact mass: 219.1107
SMILES: CC(C)(CO)C(C(=O)NCCC(=O)O)O
InChI: InChI=1S/C9H17NO5/c1-9(2,5-11)7(14)8(15)10-4-3-6(12)13/h7,11,14H,3-5H2,1-2H3,(H,10,15)(H,12,13)
Instrument: Bruker MicrOTOF-Q
Instrument type: LC-ESI-QTOF
Ms type: MS2
Ion mode: POSITIVE
Ionization: ESI
Collision energy: 35.00
Column name: Acquity CSHC18
Retention time: NA
Base peak: 220.1184
Precursor m/z: 220.1184
Precursor type: [M+H]+
m/z	relative intensity
120.951	999
