Mass spectrum: 2-METHYLCITRATE; LC-ESI-QTOF; MS2; CE: 40;  [M-H]-
Name: 2-METHYLCITRATE
Class: NA
Formula: C7H10O7
Exact mass: 206.04265
SMILES: CC(C(=O)O)C(CC(=O)O)(C(=O)O)O
InChI: InChI=1S/C7H10O7/c1-3(5(10)11)7(14,6(12)13)2-4(8)9/h3,14H,2H2,1H3,(H,8,9)(H,10,11)(H,12,13)
Instrument: Agilent 6530Â Q-TOF LC/MS
Instrument type: LC-ESI-QTOF
Ms type: MS2
Ion mode: NEGATIVE
Ionization: ESI
Collision energy: 40
Column name: NA
Retention time: 0.200 min
Base peak: 205.03556
Precursor m/z: 205.03556
Precursor type: [M-H]-
Precursor intensity: 177
m/z	relative intensity
41.0158	145
43.0267	160
53.0466	176
55.0278	236
57.0366	244
71.0732	335
73.0299	347
81.0477	363
87.0184	452
99.0448	485
101.0264	798
125.0248	999
