Mass spectrum: GDP-glucose; LC-ESI-QTOF; MS2; CE: 100;  [M+H]+
Name: GDP-glucose
Class: Purine nucleotide sugars
Formula: C16H25N5O16P2
Exact mass: 605.07715
SMILES: NC1=NC2=C(N=CN2[C@@H]2O[C@H](COP(O)(=O)OP(O)(=O)O[C@H]3O[C@H](CO)[C@@H](O)[C@H](O)[C@H]3O)[C@@H](O)[C@H]2O)C(=O)N1
InChI: InChI=1S/C16H25N5O16P2/c17-16-19-12-6(13(28)20-16)18-3-21(12)14-10(26)8(24)5(34-14)2-33-38(29,30)37-39(31,32)36-15-11(27)9(25)7(23)4(1-22)35-15/h3-5,7-11,14-15,22-27H,1-2H2,(H,29,30)(H,31,32)(H3,17,19,20,28)/t4-,5-,7-,8-,9+,10-,11-,14-,15-/m1/s1
Instrument: impact II
Instrument type: LC-ESI-QTOF
Ms type: MS2
Ion mode: POSITIVE
Ionization: ESI
Collision energy: 100
Column name: Acquity CSHC18
Retention time: 1.983 min
Base peak: 606.08450
Precursor m/z: 606.08450
Precursor type: [M+H]+
m/z	relative intensity
110.0346	198
135.0297	535
152.0564	999
153.04	403
