Mass spectrum: Corytuberine HCl; ESI-QTOF; MS2; CE: -10, -35, -60;  [M-H]-
Name: Corytuberine HCl
Class: Benzylisoquinoline (subclass: Aporphine) alkaloid
Formula: C19H21NO4
Exact mass: 327.1471
SMILES: CN1CCC2=CC(=C(C3=C2C1CC4=C3C(=C(C=C4)OC)O)O)OC
InChI: InChI=1S/C19H21NO4/c1-20-7-6-11-9-14(24-3)19(22)17-15(11)12(20)8-10-4-5-13(23-2)18(21)16(10)17/h4-5,9,12,21-22H,6-8H2,1-3H3
Instrument: AB Sciex TripleToF 5500
Instrument type: ESI-QTOF
Ms type: MS2
Ion mode: NEGATIVE
Ionization: ESI
Collision energy: -10, -35, -60
Column name: Acquity CSHC18
Retention time: 4.211 min
Base peak: 326.1451
Precursor m/z: 326.1451
Precursor type: [M-H]-
Precursor intensity: 2995
m/z	relative intensity
224.05	999
311.12	495
