Mass spectrum: Tremasperin; LC-ESI-QTOF; MS2; CE: 20-40eV;  [M+H]+
Name: Tremasperin
Class: Flavonoid C- glycosides
Formula: C30H34O16
Exact mass: 650.1847
SMILES: CC(=O)OCC1(C(C(C(C(C2=C(C=C(C=3C(C=C(C4=CC=C(C=C4)OC)OC32)=O)O)OC5(C(C(C(C(CO)(O5)[H])(O)[H])(O)[H])(O)[H])[H])(O1)[H])(O)[H])(O)[H])(O)[H])[H]
InChI: InChI=1S/C30H34O16/c1-11(32)42-10-19-23(36)24(37)26(39)29(44-19)21-17(45-30-27(40)25(38)22(35)18(9-31)46-30)8-15(34)20-14(33)7-16(43-28(20)21)12-3-5-13(41-2)6-4-12/h3-8,18-19,22-27,29-31,34-40H,9-10H2,1-2H3
Instrument: Impact II, Bruker; Dionex 3000, Thermo Scientific
Instrument type: LC-ESI-QTOF
Ms type: MS2
Ion mode: POSITIVE
Ionization: ESI
Collision energy: 20-40eV
Column name: Acquity CSHC18
Retention time: 6.497 min
Base peak: 651.1913
Precursor m/z: 651.1913
Precursor type: [M+H]+
Precursor intensity: 444585.1
m/z	relative intensity
177.0367	586
337.0909	645
489.2665	680
489.8197	999
