Mass spectrum: N-Feruloyl Lysine; LC-ESI-ITFT; MS2; CE: 35eV;  [M+H]+
Name: N-Feruloyl Lysine
Class: Hydroxycinnamic ester
Formula: C16H22N2O5
Exact mass: 322.1529
SMILES: COc1cc(/C=C/C(=O)NCCCCC(N)C(=O)O)ccc1O
InChI: InChI=1S/C16H22N2O5/c1-23-14-10-11(5-7-13(14)19)6-8-15(20)18-9-3-2-4-12(17)16(21)22/h5-8,10,12,19H,2-4,9,17H2,1H3,(H,18,20)(H,21,22)/b8-6+
Instrument: LTQ Orbitrap XL, Thermo Scientfic; Dionex Ultimate 300
Instrument type: LC-ESI-ITFT
Ms type: MS2
Ion mode: POSITIVE
Ionization: ESI
Collision energy: 35eV
Column name: Lichrospher C18 Column 250*4 5um, Interchim
Retention time: 28.72 min
Base peak: 323.1586
Precursor m/z: 323.1586
Precursor type: [M+H]+
m/z	relative intensity
117.0166	7
125.9665	6
127.1132	1
128.1419	1
129.0777	15
130.0839	9
137.0662	1
145.0309	74
147.1236	24
152.1075	1
155.0052	4
173.0245	10
176.9951	999
177.9762	1
218.1081	2
220.1447	2
234.9811	1
236.0682	2
259.8224	94
263.1609	2
276.9414	15
279.0201	2
281.1349	4
287.0614	5
