Mass spectrum: Kukoamine B; LC-ESI-ITFT; MS2; CE: 35eV;  [M+H]+
Name: Kukoamine B
Class: Phenolamide
Formula: C28H42N4O6
Exact mass: 530.3104
SMILES: C1=CC(=C(C=C1CCC(=O)NCCCNCCCCN(CCCN)C(=O)CCC2=CC(=C(C=C2)O)O)O)O
InChI: InChI=1S/C28H42N4O6/c29-13-3-18-32(28(38)12-8-22-6-10-24(34)26(36)20-22)17-2-1-14-30-15-4-16-31-27(37)11-7-21-5-9-23(33)25(35)19-21/h5-6,9-10,19-20,30,33-36H,1-4,7-8,11-18,29H2,(H,31,37)
Instrument: LTQ Orbitrap XL, Thermo Scientfic; Dionex Ultimate 300
Instrument type: LC-ESI-ITFT
Ms type: MS2
Ion mode: POSITIVE
Ionization: ESI
Collision energy: 35eV
Column name: Kinetex XB C18 150*2,1 2,6 Âµm, Phenomenex
Retention time: 7.1765 min
Base peak: 531.3108
Precursor m/z: 531.3108
Precursor type: [M+H]+
m/z	relative intensity
164.9209	22
194.0383	1
222.0104	336
223.1365	2
239.1518	1
293.1617	999
294.1028	5
310.2005	9
367.1772	20
513.28	100
514.2962	19
