Mass spectrum: 4-HYDROXYBENZOATE; LC-ESI-QFT; MS2; CE: 30eV;  [M+H]+
Name: 4-HYDROXYBENZOATE
Class: NA
Formula: C7H6O3
Exact mass: 138.03169
SMILES: OC(=O)C1=CC=C(O)C=C1
InChI: InChI=1S/C7H6O3/c8-6-3-1-5(2-4-6)7(9)10/h1-4,8H,(H,9,10)
Instrument: Q-Exactive Orbitrap, Thermo Scientfic; Ultimate 3000 HPLC, Thermo Scientfic
Instrument type: LC-ESI-QFT
Ms type: MS2
Ion mode: POSITIVE
Ionization: ESI
Collision energy: 30eV
Column name: Acquity CSHC18
Retention time: 3.021 min
Base peak: 139.0390
Precursor m/z: 139.0390
Precursor type: [M+H]+
Precursor intensity: 143
m/z	relative intensity
51.0236	1
51.7734	1
54.3251	1
55.0187	1
56.7557	1
65.0393	2
65.641	1
67.055	9
68.502	1
69.0706	7
72.7418	1
73.8333	1
74.0972	11
76.2395	1
77.0392	10
79.0551	1
80.9455	1
81.0706	3
83.0498	10
93.0705	10
94.3983	1
95.0497	999
95.0862	5
96.0531	42
97.0289	1
97.0653	5
98.9562	1
100.531	1
105.0452	55
108.7825	1
109.2338	1
111.0444	2
111.0808	6
111.9688	14
111.9722	1
112.387	1
115.9705	2
116.4181	1
116.9666	32
116.9712	1
116.9724	1
121.0288	401
121.04	9
121.1016	8
122.0322	21
124.8859	1
129.9791	12
138.9861	2
139.0392	429
139.0754	10
139.112	18
139.1235	1
139.5125	1
139.9824	21
140.0425	26
140.0683	24
143.5135	1
