Mass spectrum: Feruloylagmatine; LC-ESI-QTOF; MS2; CE: 50eV;  [M+H]+
Name: Feruloylagmatine
Class: Hydroxycinnamic acid amide
Formula: C15H22N4O3
Exact mass: 306.1692
SMILES: COC1=C(C=CC(=C1)C=CC(=O)NCCCCN=C(N)N)O
InChI: InChI=1S/C15H22N4O3/c1-22-13-10-11(4-6-12(13)20)5-7-14(21)18-8-2-3-9-19-15(16)17/h4-7,10,20H,2-3,8-9H2,1H3,(H,18,21)(H4,16,17,19)
Instrument: TIMS-TOF Pro, Bruker Daltonik; Elute UHPLC System, Bruker Daltonik
Instrument type: LC-ESI-QTOF
Ms type: MS2
Ion mode: POSITIVE
Ionization: ESI
Collision energy: 50eV
Column name: Acquity CSHC18
Retention time: 3.451 min
Base peak: 307.1736
Precursor m/z: 307.1736
Precursor type: [M+H]+
Precursor intensity: 2410.89
m/z	relative intensity
72.0777	107
114.1015	219
131.1294	118
145.0276	263
177.0537	999
307.1708	460
