Mass spectrum: cinchonidine; LC-ESI-ITFT; MS2; CE: 0.3;  [M+H]+
Name: cinchonidine
Class: alkaloids
Formula: C19H22N2O
Exact mass: 294.1732
SMILES: C=CC1CN2CCC1CC2C(C3=CC=NC4=CC=CC=C34)O
InChI: InChI=1S/C19H22N2O/c1-2-13-12-21-10-8-14(13)11-18(21)19(22)16-7-9-20-17-6-4-3-5-15(16)17/h2-7,9,13-14,18-19,22H,1,8,10-12H2
Instrument: LTQ-Orbitrap XL hybrid mass spectrometer (Thermo Scientific)
Instrument type: LC-ESI-ITFT
Ms type: MS2
Ion mode: POSITIVE
Ionization: ESI
Collision energy: 0.3
Column name: Acquity CSHC18
Retention time: 3.661 min
Base peak: 295.1804
Precursor m/z: 295.1804
Precursor type: [M+H]+
Precursor intensity: 70344000
m/z	relative intensity
81.0452	3
83.0588	2
89.1475	2
93.0427	2
97.3451	2
102.8248	2
105.0694	5
106.0908	2
108.0805	6
110.0961	25
118.3415	2
120.0802	2
122.0963	11
124.1122	5
130.0649	58
132.0805	14
134.0962	55
135.1046	6
140.2006	2
142.0657	7
143.073	9
144.0808	42
148.113	3
148.8984	2
154.0651	36
155.0736	4
156.0807	66
159.3075	2
166.0657	8
166.123	27
167.0305	17
167.072	7
168.0809	109
169.0761	15
169.0902	3
170.0962	8
171.0911	6
172.0758	12
176.0858	3
180.0807	29
181.0762	4
181.089	2
182.0966	15
183.092	16
185.1078	7
192.08	4
192.3144	3
194.0965	19
195.0919	4
196.1124	21
197.1073	39
197.6219	4
202.1384	2
204.0802	5
206.0969	16
208.1126	21
209.108	17
210.1287	10
218.0979	10
219.1048	6
220.1116	17
221.1077	8
222.1252	16
223.1231	53
224.1437	10
230.0895	3
231.1046	6
232.1123	14
233.1183	3
234.1279	139
235.1233	36
236.1375	26
238.1594	3
244.1085	3
246.128	36
248.1435	53
248.9462	3
249.1393	15
250.1585	5
250.719	2
252.139	20
260.1438	13
266.1549	5
267.1868	5
268.8809	2
271.9156	3
275.1575	19
276.1131	2
277.1221	9
277.1348	5
277.1702	999
277.2186	8
277.2459	5
277.2606	8
277.2728	3
277.3026	7
277.3142	3
278.174	5
279.1707	3
279.2002	6
287.1227	9
295.1807	84
