Mass spectrum: Hesperidin; ESI-TOF; MS2; CE: 6.0000000;  [M+H]+
Name: Hesperidin
Class: NA
Formula: C28H34O15
Exact mass: 610.18977
SMILES: COC1=CC=C(C=C1O)C1CC(=O)C2=C(O1)C=C(OC1OC(COC3OC(C)C(O)C(O)C3O)C(O)C(O)C1O)C=C2O
InChI: InChI=1S/C28H34O15/c1-10-21(32)23(34)25(36)27(40-10)39-9-19-22(33)24(35)26(37)28(43-19)41-12-6-14(30)20-15(31)8-17(42-18(20)7-12)11-3-4-16(38-2)13(29)5-11/h3-7,10,17,19,21-30,32-37H,8-9H2,1-2H3
Instrument: waters xevo g2 TOF
Instrument type: ESI-TOF
Ms type: MS2
Ion mode: POSITIVE
Ionization: ESI
Collision energy: 6.0000000
Column name: Acquity CSHC18
Retention time: 2.355 min
Base peak: 611.19777
Precursor m/z: 611.19777
Precursor type: [M+H]+
m/z	relative intensity
71.0498	5
85.0468	16
121.0079	2
129.055	23
163.9768	5
175.0891	3
187.0967	9
195.0289	4
249.1323	3
255.1422	1
263.0548	3
271.1155	137
272.1184	17
273.0754	58
274.0788	9
281.0653	37
285.0819	2
299.0833	1
302.0771	3
303.086	999
304.0892	194
305.091	31
306.0946	1
309.118	6
315.0862	1
325.0757	40
325.5773	12
326.0825	1
327.0869	4
345.0964	110
345.5891	16
346.0993	28
347.1013	2
369.0965	25
370.0995	5
383.1105	2
395.1121	1
401.1226	10
413.1222	68
414.1263	17
415.1263	2
419.1327	32
420.1395	7
431.1335	220
432.1363	57
433.1257	7
435.1281	27
436.1301	6
447.128	36
448.129	9
449.1437	674
450.1465	181
451.1492	37
452.1515	2
463.1224	2
465.1387	443
466.1424	119
467.1436	25
473.1431	6
476.1153	4
485.1149	2
487.1188	2
489.1373	6
490.1421	2
491.1534	10
503.0843	5
507.1502	7
508.1516	1
521.0615	1
557.166	7
558.1703	1
575.1729	18
576.1793	4
577.1873	3
579.1703	7
580.1761	1
581.1855	13
582.1817	4
593.1834	22
594.1921	6
595.2007	10
603.1678	31
604.1703	8
605.1702	2
609.1829	9
611.1965	359
612.2009	120
