Mass spectrum: Sinapoyl malate; LC-ESI-QTOF; MS2; CE: 50eV;  [M-H]-
Name: Sinapoyl malate
Class: Phenylpropanoid
Formula: C15H16O9
Exact mass: 340.0794
SMILES: COC1=CC(=CC(=C1O)OC)C=CC(=O)OC(CC(=O)O)C(=O)O
InChI: InChI=1S/C15H16O9/c1-22-9-5-8(6-10(23-2)14(9)19)3-4-13(18)24-11(15(20)21)7-12(16)17/h3-6,11,19H,7H2,1-2H3,(H,16,17)(H,20,21)
Instrument: TIMS-TOF Pro, Bruker Daltonik; Elute UHPLC System, Bruker Daltonik
Instrument type: LC-ESI-QTOF
Ms type: MS2
Ion mode: NEGATIVE
Ionization: ESI
Collision energy: 50eV
Column name: Acquity CSHC18
Retention time: 5.738 min
Base peak: 339.0728
Precursor m/z: 339.0728
Precursor type: [M-H]-
Precursor intensity: 70919.22
m/z	relative intensity
95.7335	999
