Mass spectrum: Phosphocreatine; LC-ESI-QTOF; MS2; CE: 15 / 50;  [M+H]+
Name: Phosphocreatine
Class: NA
Formula: C4H10N3O5P
Exact mass: 211.03581
SMILES: CN(CC(=O)O)C(=NP(=O)(O)O)N
InChI: InChI=1S/C4H10N3O5P/c1-7(2-3(8)9)4(5)6-13(10,11)12/h2H2,1H3,(H,8,9)(H4,5,6,10,11,12)
Instrument: impact II
Instrument type: LC-ESI-QTOF
Ms type: MS2
Ion mode: POSITIVE
Ionization: ESI
Collision energy: 15 / 50
Column name: Acquity CSHC18
Retention time: 0.602 min
Base peak: 212.04330
Precursor m/z: 212.04330
Precursor type: [M+H]+
m/z	relative intensity
90.0551	425
114.0662	483
122.9954	190
123.9796	263
195.0164	251
212.0432	999
