Mass spectrum: Dihydromyricetin; LC-ESI-QTOF; MS2; CE: 50eV;  [M-H]-
Name: Dihydromyricetin
Class: Flavanonol
Formula: C15H12O8
Exact mass: 320.0532
SMILES: C1=C(C=C(C(=C1O)O)O)C2C(C(=O)C3=C(C=C(C=C3O2)O)O)O
InChI: InChI=1S/C15H12O8/c16-6-3-7(17)11-10(4-6)23-15(14(22)13(11)21)5-1-8(18)12(20)9(19)2-5/h1-4,14-20,22H
Instrument: TIMS-TOF Pro, Bruker Daltonik; Elute UHPLC System, Bruker Daltonik
Instrument type: LC-ESI-QTOF
Ms type: MS2
Ion mode: NEGATIVE
Ionization: ESI
Collision energy: 50eV
Column name: Acquity CSHC18
Retention time: 4.676 min
Base peak: 319.0391
Precursor m/z: 319.0391
Precursor type: [M-H]-
Precursor intensity: 69077.75
m/z	relative intensity
21.1536	12
31.0901	15
34.9407	5
41.0025	52
45.6291	12
49.8284	11
54.1859	7
57.0335	966
57.1562	6
57.3793	6
58.0441	8
59.1642	14
63.0236	34
63.8273	9
65.0385	17
66.0046	5
67.0179	16
68.9969	13
71.736	11
72.8608	20
74.9331	13
79.0178	15
80.0232	8
81.0334	53
82.1886	11
83.0126	261
84.8456	6
91.0175	15
93.0322	63
95.0121	29
96.0183	41
97.5384	15
101.0371	12
106.0457	7
107.0124	103
108.0195	15
109.028	362
110.0313	30
110.5728	8
111.0426	44
112.7622	6
115.0559	12
117.6683	9
119.0113	68
120.0197	18
121.0288	107
123.0074	76
123.5168	13
124.0149	171
124.1853	6
125.0231	999
125.1148	8
125.2083	5
126.0229	15
126.5031	5
127.0285	9
128.056	10
129.5071	14
135.0248	32
137.0219	303
138.0278	28
139.0392	107
140.0431	17
143.0501	7
145.6225	17
147.0052	77
148.0145	21
149.0213	41
151.0008	166
151.2353	12
152.01	35
153.0167	86
154.0169	10
158.0366	12
159.0431	24
160.0489	15
163.0208	24
164.041	12
165.0158	136
166.022	52
167.0312	118
168.0312	8
171.0429	8
173.0221	14
175.0001	350
176.0027	48
177.0019	8
178.3596	10
178.9961	228
179.9995	25
181.01	39
183.0394	9
186.0294	8
187.0373	41
189.0155	10
190.0249	19
191.0304	202
191.1219	5
192.0342	12
192.9924	772
193.3298	9
193.5821	6
193.6632	6
194.0145	78
195.015	12
198.0654	12
203.0695	9
205.0448	8
213.0531	13
215.03	133
215.6987	5
220.0298	7
228.037	7
232.0306	22
233.0428	75
234.0452	10
235.0207	7
239.0284	6
240.0314	8
245.048	8
249.0653	6
257.0411	190
258.0482	13
259.0472	5
262.0376	8
275.0514	32
276.0565	13
283.0158	8
290.035	8
291.0455	42
299.5013	6
301.0286	181
302.0279	11
303.6083	5
319.0391	20
