Mass spectrum: BIOTIN; LC-ESI-QTOF; MS2; CE: 10;  [M+H]+
Name: BIOTIN
Class: NA
Formula: C10H16N2O3S
Exact mass: 244.08816
SMILES: [H][C@]12CS[C@@H](CCCCC(O)=O)[C@@]1([H])NC(=O)N2
InChI: InChI=1S/C10H16N2O3S/c13-8(14)4-2-1-3-7-9-6(5-16-7)11-10(15)12-9/h6-7,9H,1-5H2,(H,13,14)(H2,11,12,15)/t6-,7-,9-/m0/s1
Instrument: Agilent 6530Â Q-TOF LC/MS
Instrument type: LC-ESI-QTOF
Ms type: MS2
Ion mode: POSITIVE
Ionization: ESI
Collision energy: 10
Column name: NA
Retention time: 0.200 min
Base peak: 245.09320
Precursor m/z: 245.09320
Precursor type: [M+H]+
Precursor intensity: 164.5
m/z	relative intensity
55.0523	38
61.0411	38
68.0533	39
69.0616	39
76.0252	42
79.0556	45
82.0257	46
83.0854	46
85.0268	48
97.0476	48
105.0774	48
108.083	48
111.0252	50
115.0527	51
121.0677	54
123.0399	56
125.041	57
133.0776	58
138.0453	60
139.0639	63
166.0868	66
167.0669	68
182.0677	70
184.0956	94
192.0491	102
199.1019	103
209.09	115
227.3853	122
228.0174	141
228.234	157
228.3336	168
228.6195	182
228.7191	642
244.1878	999
245.1426	38
246.2205	38
