Mass spectrum: 5-trans Latanoprost (free acid); ESI-TOF; MS2; CE: 6.0000000;  [M+H]+
Name: 5-trans Latanoprost (free acid)
Class: NA
Formula: C23H34O5
Exact mass: 390.24062
SMILES: O[C@@H](CCC1=CC=CC=C1)CC[C@@H]2[C@@H](C/C=C/CCCC(O)=O)[C@@H](O)C[C@H]2O
InChI: InChI=1S/C23H34O5/c24-18(13-12-17-8-4-3-5-9-17)14-15-20-19(21(25)16-22(20)26)10-6-1-2-7-11-23(27)28/h1,3-6,8-9,18-22,24-26H,2,7,10-16H2,(H,27,28)/b6-1+/t18-,19+,20+,21-,22+/m0/s1
Instrument: waters xevo g2 TOF
Instrument type: ESI-TOF
Ms type: MS2
Ion mode: POSITIVE
Ionization: ESI
Collision energy: 6.0000000
Column name: Acquity CSHC18
Retention time: 3.499 min
Base peak: 391.24862
Precursor m/z: 391.24862
Precursor type: [M+H]+
m/z	relative intensity
93.0705	2
105.0706	4
109.0665	1
117.071	15
121.1017	3
131.0867	100
142.0651	2
143.0861	18
147.1171	3
149.0611	5
157.1016	5
167.0779	27
169.1014	8
171.117	29
177.1648	12
179.0864	2
181.1017	8
187.1484	7
193.1112	28
195.1036	16
205.1548	6
206.1109	64
207.1381	81
209.1333	142
210.1365	19
211.1476	13
215.1013	40
221.1518	23
225.1461	8
227.1416	29
233.1535	21
234.1607	2
235.1664	36
237.1564	2
239.1452	3
253.1591	8
337.2265	999
338.2301	248
339.2241	26
355.2281	914
356.2307	204
357.2431	25
372.1358	4
373.2364	89
375.2458	2
391.2483	257
392.2504	58
