Mass spectrum: tiliroside; LC-ESI-ITFT; MS2; CE: 0.3;  [M+H]+
Name: tiliroside
Class: flavonols
Formula: C30H26O13
Exact mass: 594.1373
SMILES: C1=CC(=CC=C1C=CC(=O)OCC2C(C(C(C(O2)OC3=C(OC4=CC(=CC(=C4C3=O)O)O)C5=CC=C(C=C5)O)O)O)O)O
InChI: InChI=1S/C30H26O13/c31-16-6-1-14(2-7-16)3-10-22(35)40-13-21-24(36)26(38)27(39)30(42-21)43-29-25(37)23-19(34)11-18(33)12-20(23)41-28(29)15-4-8-17(32)9-5-15/h1-12,21,24,26-27,30-34,36,38-39H,13H2
Instrument: LTQ-Orbitrap XL hybrid mass spectrometer (Thermo Scientific)
Instrument type: LC-ESI-ITFT
Ms type: MS2
Ion mode: POSITIVE
Ionization: ESI
Collision energy: 0.3
Column name: Acquity CSHC18
Retention time: 8.708 min
Base peak: 595.1465
Precursor m/z: 595.1465
Precursor type: [M+H]+
Precursor intensity: 29026980
m/z	relative intensity
165.0551	73
196.0683	49
196.1482	100
280.49	20
287.0562	999
287.2587	43
287.2686	164
287.2765	46
287.2966	22
291.0875	306
309.098	978
317.2721	22
323.7765	30
329.0668	219
351.6033	30
395.0774	42
457.1893	38
463.748	24
478.5711	53
502.0794	20
530.1063	28
539.3527	20
539.3686	18
562.374	18
577.1356	215
595.1379	23
