Mass spectrum: Chlorogenic acid; LC-ESI-QFT; MS2; CE: 15,30,45 (NCE);  [2M+Na]+
Name: Chlorogenic acid
Class: NA
Formula: C16H18O9
Exact mass: 354.0951
SMILES: C1C(C(C(CC1(C(=O)O)O)OC(=O)C=CC2=CC(=C(C=C2)O)O)O)O
InChI: InChI=1S/C16H18O9/c17-9-3-1-8(5-10(9)18)2-4-13(20)25-12-7-16(24,15(22)23)6-11(19)14(12)21/h1-5,11-12,14,17-19,21,24H,6-7H2,(H,22,23)
Instrument: QE Focus, Thermo Scientfic; UPLC I-Class, Waters
Instrument type: LC-ESI-QFT
Ms type: MS2
Ion mode: POSITIVE
Ionization: ESI
Collision energy: 15,30,45 (NCE)
Column name: Acquity CSHC18
Retention time: 0.880 min
Base peak: 731.1796
Precursor m/z: 731.1796
Precursor type: [2M+Na]+
Precursor intensity: 3246615
m/z	relative intensity
60.2302	2
82.2726	2
85.1231	2
97.9098	2
140.1732	2
153.4848	2
163.0387	4
179.0324	9
185.0211	19
197.0424	16
215.0527	35
331.078	3
359.0728	20
377.0844	999
378.0886	9
379.0905	4
379.8118	2
413.9838	2
521.5653	2
