Mass spectrum: 4-Hydroxycinnamic acid; LC-ESI-ITFT; MS2; CE: 40;  [M-H]-
Name: 4-Hydroxycinnamic acid
Class: Phenylpropanoids and polyketides; Cinnamic acids and derivatives; Hydroxycinnamic acids and derivatives
Formula: C9H8O3
Exact mass: 164.04734
SMILES: OC(=O)\C=C\C1=CC=C(O)C=C1
InChI: InChI=1S/C9H8O3/c10-8-4-1-7(2-5-8)3-6-9(11)12/h1-6,10H,(H,11,12)/b6-3+
Instrument: Thermo Scientific Q-Exactive Focus
Instrument type: LC-ESI-ITFT
Ms type: MS2
Ion mode: NEGATIVE
Ionization: ESI
Collision energy: 40
Column name: Acquity CSHC18
Retention time: 1.475 min
Base peak: 163.04007
Precursor m/z: 163.04007
Precursor type: [M-H]-
m/z	relative intensity
65.0385	172
89.0385	21
91.0541	117
93.0334	999
104.0255	26
105.3752	9
117.0334	255
119.0491	698
165.9558	8
178.5305	9
