Mass spectrum: 3,4-Dihydroxy-5-methoxybenzaldehyde-1; LC-ESI-QTOF; MS2; CE: 50eV;  [M-H]-
Name: 3,4-Dihydroxy-5-methoxybenzaldehyde-1
Class: Benzaldehyde derivative
Formula: C8H8O4
Exact mass: 168.0423
SMILES: COC1=CC(=CC(=C1O)O)C=O
InChI: InChI=1S/C8H8O4/c1-12-7-3-5(4-9)2-6(10)8(7)11/h2-4,10-11H,1H3
Instrument: TIMS-TOF Pro, Bruker Daltonik; Elute UHPLC System, Bruker Daltonik
Instrument type: LC-ESI-QTOF
Ms type: MS2
Ion mode: NEGATIVE
Ionization: ESI
Collision energy: 50eV
Column name: Acquity CSHC18
Retention time: 4.253 min
Base peak: 167.0332
Precursor m/z: 167.0332
Precursor type: [M-H]-
Precursor intensity: 1792.22
m/z	relative intensity
124.0167	114
152.01	999
153.0108	152
