Mass spectrum: Lyciumoside IV; LC-ESI-QTOF; MS2; CE: 20eV; [M+NH4]+
Name: Lyciumoside IV
Class: Diterpene
Formula: C38H64O16
Exact mass: 776.4194
SMILES: CC1C(C(C(C(O1)OC2C(OC(C(C2O)O)OC(C)(CCC=C(C)CCC=C(C)CCC=C(C)COC3C(C(C(C(O3)CO)O)O)O)C=C)CO)O)O)O
InChI: InChI=1S/C38H64O16/c1-7-38(6,54-37-33(48)30(45)34(25(18-40)52-37)53-36-32(47)28(43)26(41)23(5)50-36)16-10-15-21(3)12-8-11-20(2)13-9-14-22(4)19-49-35-31(46)29(44)27(42)24(17-39)51-35/h7,11,14-15,23-37,39-48H,1,8-10,12-13,16-19H2,2-6H3
Instrument: Microtof-q MS
Instrument type: LC-ESI-QTOF
Ms type: MS2
Ion mode: POSITIVE
Ionization: ESI
Collision energy: 20eV
Column name: Acquity CSH C18 column (particle size 1.7 μm, column length 2.1 × 50 mm) (Waters)
Retention time: NA
Base peak: 794.4547
Precursor m/z: 794.4547
Precursor type: [M+NH4]+
m/z	relative intensity
135.1174	317
149.1329	567
159.1170	404
161.1323	537
163.1477	535
173.1326	202
175.1482	449
177.1637	312
187.1472	200
189.1642	337
201.1636	415
215.1795	762
216.1837	129
229.1948	118
231.2096	117
271.2422	999
272.2455	184
289.2524	143
475.3034	281
