Mass spectrum: Glucosamine; LC-ESI-ITFT; MS2; CE: 40;  [M+H]+
Name: Glucosamine
Class: Organic oxygen compounds; Organooxygen compounds; Carbohydrates and carbohydrate conjugates
Formula: C6H13NO5
Exact mass: 179.07937
SMILES: N[C@H]1C(O)O[C@H](CO)[C@@H](O)[C@@H]1O
InChI: InChI=1S/C6H13NO5/c7-3-5(10)4(9)2(1-8)12-6(3)11/h2-6,8-11H,1,7H2/t2-,3-,4-,5-,6?/m1/s1
Instrument: Thermo Scientific Q-Exactive Focus
Instrument type: LC-ESI-ITFT
Ms type: MS2
Ion mode: POSITIVE
Ionization: ESI
Collision energy: 40
Column name: Acquity CSHC18
Retention time: 1.463 min
Base peak: 180.08665
Precursor m/z: 180.08665
Precursor type: [M+H]+
m/z	relative intensity
53.0392	117
55.0184	167
56.0501	745
56.9654	593
57.0341	115
60.045	999
61.029	107
68.05	367
69.034	422
72.0449	626
