Mass spectrum: Levopimaric acid; LC-ESI-QTOF; MS2; CE: 15.09;  [M-H]-
Name: Levopimaric acid
Class: NA
Formula: C20H30O2
Exact mass: 302.2246
SMILES: CC(C)C1=CCC2C(=C1)CCC3C2(CCCC3(C)C(=O)O)C
InChI: InChI=1S/C20H30O2/c1-13(2)14-6-8-16-15(12-14)7-9-17-19(16,3)10-5-11-20(17,4)18(21)22/h6,12-13,16-17H,5,7-11H2,1-4H3,(H,21,22)
Instrument: Bruker MicrOTOF-Q
Instrument type: LC-ESI-QTOF
Ms type: MS2
Ion mode: NEGATIVE
Ionization: ESI
Collision energy: 15.09
Column name: Acquity CSHC18
Retention time: NA
Base peak: 301.2173
Precursor m/z: 301.2173
Precursor type: [M-H]-
m/z	relative intensity
249.6467	1
255.2309	4
299.4714	1
299.5772	2
300.931	4
301.2166	999
302.2198	197
302.7639	1
303.2222	6
