Mass spectrum: Monomethyl phthalate; LC-ESI-ITFT; MS2; CE: 10;  [M+H]+
Name: Monomethyl phthalate
Class: Benzenoids; Benzene and substituted derivatives; Benzoic acids and derivatives
Formula: C9H8O4
Exact mass: 180.04226
SMILES: COC(=O)C1=CC=CC=C1C(O)=O
InChI: InChI=1S/C9H8O4/c1-13-9(12)7-5-3-2-4-6(7)8(10)11/h2-5H,1H3,(H,10,11)
Instrument: Thermo Scientific Q-Exactive Focus
Instrument type: LC-ESI-ITFT
Ms type: MS2
Ion mode: POSITIVE
Ionization: ESI
Collision energy: 10
Column name: Acquity CSHC18
Retention time: 0.348 min
Base peak: 181.04955
Precursor m/z: 181.04955
Precursor type: [M+H]+
m/z	relative intensity
56.9653	5
65.8977	1
97.9916	2
121.0285	5
133.0283	5
135.044	6
140.0681	7
149.0233	999
163.0389	741
167.0338	3
