Mass spectrum: Gentisic acid; LC-ESI-ITFT; MS2; CE: 40;  [M-H]-
Name: Gentisic acid
Class: Benzenoids; Benzene and substituted derivatives; Benzoic acids and derivatives
Formula: C7H6O4
Exact mass: 154.02661
SMILES: OC(=O)C1=C(O)C=CC(O)=C1
InChI: InChI=1S/C7H6O4/c8-4-1-2-6(9)5(3-4)7(10)11/h1-3,8-9H,(H,10,11)
Instrument: Thermo Scientific Q-Exactive Focus
Instrument type: LC-ESI-ITFT
Ms type: MS2
Ion mode: NEGATIVE
Ionization: ESI
Collision energy: 40
Column name: Acquity CSHC18
Retention time: NA
Base peak: 153.01933
Precursor m/z: 153.01933
Precursor type: [M-H]-
m/z	relative intensity
67.93	8
68.3365	9
94.0172	9
99.6218	9
108.0205	999
113.2202	9
120.164	8
135.5564	10
149.4343	9
156.2709	8
