Mass spectrum: H-Leu-Phe-OH; LC-ESI-QTOF; MS2; CE: 15.00;  [M+H]+
Name: H-Leu-Phe-OH
Class: NA
Formula: C15H22N2O3
Exact mass: 278.1630
SMILES: CC(C)CC(C(=O)NC(CC1=CC=CC=C1)C(=O)O)N
InChI: InChI=1S/C15H22N2O3/c1-10(2)8-12(16)14(18)17-13(15(19)20)9-11-6-4-3-5-7-11/h3-7,10,12-13H,8-9,16H2,1-2H3,(H,17,18)(H,19,20)
Instrument: Bruker MicrOTOF-Q
Instrument type: LC-ESI-QTOF
Ms type: MS2
Ion mode: POSITIVE
Ionization: ESI
Collision energy: 15.00
Column name: Acquity CSHC18
Retention time: NA
Base peak: 279.1703
Precursor m/z: 279.1703
Precursor type: [M+H]+
m/z	relative intensity
149.06	10
152.01	5
165.95	8
166.09	999
166.52	5
167.09	119
168.09	9
174.09	16
198.17	5
200.14	8
216.14	19
217.16	10
218.17	9
220.09	4
232.14	5
233.16	271
234.17	67
235.16	4
244.14	16
245.16	5
261.16	25
262.16	18
263.2	6
269.41	4
279.17	606
280.17	80
