Mass spectrum: Allantoic acid; ESI-TOF; MS2; CE: 6.0000000;  [M+H]+
Name: Allantoic acid
Class: NA
Formula: C4H8N4O4
Exact mass: 176.05455
SMILES: NC(=O)NC(NC(N)=O)C(O)=O
InChI: InChI=1S/C4H8N4O4/c5-3(11)7-1(2(9)10)8-4(6)12/h1H,(H,9,10)(H3,5,7,11)(H3,6,8,12)
Instrument: waters xevo g2 TOF
Instrument type: ESI-TOF
Ms type: MS2
Ion mode: POSITIVE
Ionization: ESI
Collision energy: 6.0000000
Column name: Acquity CSHC18
Retention time: 0.467 min
Base peak: 177.06255
Precursor m/z: 177.06255
Precursor type: [M+H]+
m/z	relative intensity
96.9615	135
97.9693	117
98.9626	14
99.9696	58
101.9408	25
102.1286	24
113.9643	443
115.9649	8
117.0301	17
129.9804	10
130.0091	11
139.9641	64
140.962	23
141.9714	999
143.9596	138
177.0628	16
182.998	125
184.9858	67
185.9842	24
188.9612	10
199.0441	24
246.8628	8
258.8864	13
287.8891	7
