Mass spectrum: Dehydrodiconiferyl alcohol 4-O-beta-D-glucopyranoside; LC-ESI-QTOF; MS2; CE: 20-40eV;  [M+NH4]+
Name: Dehydrodiconiferyl alcohol 4-O-beta-D-glucopyranoside
Class: Lignans glycosides
Formula: C26H32O11
Exact mass: 520.1945
SMILES: COC=1C=C(C=CC1OC2(C(C(C(C(CO)(O2)[H])(O)[H])(O)[H])(O)[H])[H])C3(C(CO)(C=4C=C(C(=C(CO)[H])[H])C=C(C4O3)OC)[H])[H]
InChI: InChI=1S/C26H32O11/c1-33-18-10-14(5-6-17(18)35-26-23(32)22(31)21(30)20(12-29)36-26)24-16(11-28)15-8-13(4-3-7-27)9-19(34-2)25(15)37-24/h3-6,8-10,16,20-24,26-32H,7,11-12H2,1-2H3
Instrument: Impact II, Bruker; Dionex 3000, Thermo Scientific
Instrument type: LC-ESI-QTOF
Ms type: MS2
Ion mode: POSITIVE
Ionization: ESI
Collision energy: 20-40eV
Column name: Acquity CSHC18
Retention time: 5.195 min
Base peak: 538.2282
Precursor m/z: 538.2282
Precursor type: [M+NH4]+
Precursor intensity: 6822.25
m/z	relative intensity
145.0465	143
175.0573	167
219.0533	192
309.1427	321
324.1592	999
