Mass spectrum: 3-O-Methylquercetin; LC-ESI-QTOF; MS2; CE: 50eV;  [M+H]+
Name: 3-O-Methylquercetin
Class: Flavonol
Formula: C16H12O7
Exact mass: 316.0583
SMILES: COC1=C(OC2=CC(=CC(=C2C1=O)O)O)C3=CC(=C(C=C3)O)O
InChI: InChI=1S/C16H12O7/c1-22-16-14(21)13-11(20)5-8(17)6-12(13)23-15(16)7-2-3-9(18)10(19)4-7/h2-6,17-20H,1H3
Instrument: TIMS-TOF Pro, Bruker Daltonik; Elute UHPLC System, Bruker Daltonik
Instrument type: LC-ESI-QTOF
Ms type: MS2
Ion mode: POSITIVE
Ionization: ESI
Collision energy: 50eV
Column name: Acquity CSHC18
Retention time: 6.991 min
Base peak: 317.0611
Precursor m/z: 317.0611
Precursor type: [M+H]+
Precursor intensity: 332596.3
m/z	relative intensity
55.0796	1
67.5361	1
92.0253	2
108.0199	5
110.036	10
122.0349	1
122.0402	2
127.0401	1
136.0149	6
137.0234	31
138.0282	3
147.0281	1
150.031	3
153.0172	10
158.0187	1
166.0075	1
172.0513	5
176.0472	1
183.0714	1
200.0464	8
203.0331	2
206.3381	1
215.0312	2
217.0485	5
227.0055	1
228.037	9
229.0084	4
229.0516	7
231.0296	2
245.0272	1
255.0089	1
256.0208	1
257.0424	4
260.1193	1
261.0618	1
273.0371	3
274.0447	11
283.0182	1
285.0397	3
298.0561	1
300.9749	2
301.0355	33
301.986	2
302.0384	121
302.5598	1
303.0429	28
304.0353	1
309.1916	2
316.9904	2
317.0639	999
