Mass spectrum: D-ORNITHINE; LC-ESI-QFT; MS2; CE: 30eV;  [M+H]+
Name: D-ORNITHINE
Class: NA
Formula: C5H12N2O2
Exact mass: 132.08988
SMILES: NCCC[C@@H](N)C(O)=O
InChI: InChI=1S/C5H12N2O2/c6-3-1-2-4(7)5(8)9/h4H,1-3,6-7H2,(H,8,9)/t4-/m1/s1
Instrument: Q-Exactive Orbitrap, Thermo Scientfic; Ultimate 3000 HPLC, Thermo Scientfic
Instrument type: LC-ESI-QFT
Ms type: MS2
Ion mode: POSITIVE
Ionization: ESI
Collision energy: 30eV
Column name: Acquity CSHC18
Retention time: 0.524 min
Base peak: 133.0972
Precursor m/z: 133.0972
Precursor type: [M+H]+
Precursor intensity: 162
m/z	relative intensity
51.6177	3
51.9996	5
57.3788	4
59.5573	5
64.1166	4
64.6964	4
64.7223	4
68.0502	52
71.0498	19
71.0629	22
71.0692	225
72.9384	4
84.1504	5
86.0608	153
87.058	4
87.064	40
87.0924	26
88.0765	10
88.3444	4
93.44	5
97.0767	46
98.0606	7
104.7311	4
105.0705	9
107.1054	4
111.4849	5
115.0872	999
115.4557	4
117.0682	12
117.0744	178
117.7158	5
132.0658	64
133.0316	4
133.0692	32
133.0975	346
134.101	8
