Mass spectrum: Inosine; LC-ESI-ITFT; MS2; CE: 100;  [M-H]-
Name: Inosine
Class: Nucleosides, nucleotides, and analogues; Purine nucleosides
Formula: C10H12N4O5
Exact mass: 268.08077
SMILES: OC[C@H]1O[C@H]([C@H](O)[C@@H]1O)N1C=NC2=C1NC=NC2=O
InChI: InChI=1S/C10H12N4O5/c15-1-4-6(16)7(17)10(19-4)14-3-13-5-8(14)11-2-12-9(5)18/h2-4,6-7,10,15-17H,1H2,(H,11,12,18)/t4-,6-,7-,10-/m1/s1
Instrument: Thermo Scientific Q-Exactive Focus
Instrument type: LC-ESI-ITFT
Ms type: MS2
Ion mode: NEGATIVE
Ionization: ESI
Collision energy: 100
Column name: Acquity CSHC18
Retention time: 2.582 min
Base peak: 267.07349
Precursor m/z: 267.07349
Precursor type: [M-H]-
m/z	relative intensity
64.0054	76
65.0133	286
65.9973	999
66.0085	45
92.0242	33
124.182	11
176.9241	15
214.4849	11
222.6175	11
256.4423	11
