Mass spectrum: 1-O-1'-(Z)-octadecenyl-2-hydroxy-sn-glycero-3-phosphoethanolamine; ESI-TOF; MS2; CE: 6.0000000;  [M+H]+
Name: 1-O-1'-(Z)-octadecenyl-2-hydroxy-sn-glycero-3-phosphoethanolamine
Class: NA
Formula: C23H48NO6P
Exact mass: 465.32192
SMILES: [H]OC([H])(C([H])([H])OC([H])=C([H])C([H])([H])C([H])([H])C([H])([H])C([H])([H])C([H])([H])C([H])([H])C([H])([H])C([H])([H])C([H])([H])C([H])([H])C([H])([H])C([H])([H])C([H])([H])C([H])([H])C([H])([H])C([H])([H])[H])C([H])([H])OP(=O)([O-])OC([H])([H])C([H])([H])[N+]([H])([H])[H]
InChI: InChI=1S/C23H48NO6P/c1-2-3-4-5-6-7-8-9-10-11-12-13-14-15-16-17-19-28-21-23(25)22-30-31(26,27)29-20-18-24/h17,19,23,25H,2-16,18,20-22,24H2,1H3,(H,26,27)
Instrument: waters xevo g2 TOF
Instrument type: ESI-TOF
Ms type: MS2
Ion mode: POSITIVE
Ionization: ESI
Collision energy: 6.0000000
Column name: Acquity CSHC18
Retention time: 7.812 min
Base peak: 466.32992
Precursor m/z: 466.32992
Precursor type: [M+H]+
m/z	relative intensity
136.9324	1
155.0113	2
192.9596	1
198.053	4
252.6424	7
253.1448	1
271.6169	2
294.3168	1
312.3268	8
313.3301	1
351.1639	1
358.6468	1
359.1497	2
392.2926	2
423.2865	17
424.2886	4
443.223	27
444.2266	4
448.3183	16
449.3222	4
461.2336	67
462.2358	5
463.7812	3
464.2839	1
466.3293	999
467.3325	272
