Mass spectrum: N-ACETYLSEROTONIN; LC-ESI-QTOF; MS2; CE: 10;  [M+H]+
Name: N-ACETYLSEROTONIN
Class: NA
Formula: C12H14N2O2
Exact mass: 218.10553
SMILES: CC(=O)NCCC1=CNC2=C1C=C(O)C=C2
InChI: InChI=1S/C12H14N2O2/c1-8(15)13-5-4-9-7-14-12-3-2-10(16)6-11(9)12/h2-3,6-7,14,16H,4-5H2,1H3,(H,13,15)
Instrument: Agilent 6530Â Q-TOF LC/MS
Instrument type: LC-ESI-QTOF
Ms type: MS2
Ion mode: POSITIVE
Ionization: ESI
Collision energy: 10
Column name: NA
Retention time: 0.200 min
Base peak: 219.10979
Precursor m/z: 219.10979
Precursor type: [M+H]+
Precursor intensity: 133.5
m/z	relative intensity
43.0288	13
44.0517	13
60.0465	13
63.0224	13
65.0402	14
67.0546	14
77.0479	15
78.0446	15
79.0656	15
86.0789	15
89.039	16
90.0531	17
91.0621	17
92.0492	17
94.042	18
103.066	18
104.0604	19
105.0801	20
114.0435	22
115.0955	23
115.4401	23
116.0721	23
117.09	24
118.0688	24
130.0828	25
131.0783	26
132.1039	26
132.4368	29
133.0872	33
133.3253	35
134.0741	37
141.0577	37
142.101	41
143.0899	47
144.0617	47
145.0505	49
148.0929	58
154.0556	60
158.0649	68
158.6671	69
158.7718	74
161.0658	77
162.9952	78
163.1324	79
163.2892	99
163.669	105
174.0985	108
177.125	126
184.099	132
186.0794	158
190.1037	172
201.1363	205
202.4123	206
202.9774	309
203.0876	502
217.0152	504
219.1862	723
219.5558	999
220.0822	13
