Mass spectrum: Rotundin; LC-ESI-ITFT; MS2; CE: 50eV;  [M+H]+
Name: Rotundin
Class: Sesquiterpenelactone; Heliangolide
Formula: C22H28O8
Exact mass: 420.1784
SMILES: C/C=C(/C)\C(=O)O[C@@H]1C[C@@]2([C@H](O2)C[C@@H](/C(=C\[C@@H]3[C@@H]1C(=C)C(=O)O3)/C)O)COC(=O)C
InChI: InChI=1S/C22H28O8/c1-6-11(2)20(25)29-17-9-22(10-27-14(5)23)18(30-22)8-15(24)12(3)7-16-19(17)13(4)21(26)28-16/h6-7,15-19,24H,4,8-10H2,1-3,5H3/b11-6-,12-7-/t15-,16+,17+,18+,19-,22-/m0/s1
Instrument: Q Exactive Plus, ThermoFisher Scientific
Instrument type: LC-ESI-ITFT
Ms type: MS2
Ion mode: POSITIVE
Ionization: ESI
Collision energy: 50eV
Column name: Acquity CSHC18
Retention time: 6.650 min
Base peak: 421.1853
Precursor m/z: 421.1853
Precursor type: [M+H]+
Precursor intensity: 267121200
m/z	relative intensity
55.037	21
81.0525	33
97.0467	38
103.0474	67
107.0678	75
109.0467	82
119.0677	90
121.083	100
131.0676	105
133.0831	108
135.0627	117
145.0829	135
147.0619	143
149.0775	152
151.0573	158
157.0831	172
159.0994	176
161.0779	182
163.0573	196
165.0718	218
167.0779	221
169.0828	226
171.099	234
173.0777	250
179.0774	265
187.0943	279
189.0733	332
191.0888	413
197.088	686
199.0935	981
215.0896	999
