Mass spectrum: 3-Sulfinoalanine; LC-ESI-ITFT; MS2; CE: 30;  [M+H]+
Name: 3-Sulfinoalanine
Class: Organic acids and derivatives; Carboxylic acids and derivatives; Amino acids, peptides, and analogues
Formula: C3H7NO4S
Exact mass: 153.00958
SMILES: C([C@@H](C(=O)O)N)S(=O)=O
InChI: InChI=1S/C3H7NO4S/c4-2(3(5)6)1-9(7)8/h2,9H,1,4H2,(H,5,6)/t2-/m0/s1
Instrument: Thermo Scientific Q-Exactive Focus
Instrument type: LC-ESI-ITFT
Ms type: MS2
Ion mode: POSITIVE
Ionization: ESI
Collision energy: 30
Column name: Acquity CSHC18
Retention time: 0.914 min
Base peak: 154.01685
Precursor m/z: 154.01685
Precursor type: [M+H]+
m/z	relative intensity
55.0184	429
56.5574	29
70.0292	39
73.0288	999
73.4665	29
74.0241	818
83.6771	32
102.1734	30
117.385	32
118.0028	31
