Mass spectrum: L-Tryptophan; ESI-TOF; MS2; CE: 6.0000000;  [M+H]+
Name: L-Tryptophan
Class: NA
Formula: C11H12N2O2
Exact mass: 204.08988
SMILES: NC(CC1=CNC2=CC=CC=C12)C(O)=O
InChI: InChI=1S/C11H12N2O2/c12-9(11(14)15)5-7-6-13-10-4-2-1-3-8(7)10/h1-4,6,9,13H,5,12H2,(H,14,15)
Instrument: waters xevo g2 TOF
Instrument type: ESI-TOF
Ms type: MS2
Ion mode: POSITIVE
Ionization: ESI
Collision energy: 6.0000000
Column name: Acquity CSHC18
Retention time: 1.748 min
Base peak: 205.09788
Precursor m/z: 205.09788
Precursor type: [M+H]+
m/z	relative intensity
114.9707	2
118.0656	16
119.0688	1
130.0654	56
131.0689	3
132.0811	73
133.0844	7
142.0655	4
142.9653	2
144.081	68
145.0841	5
146.0605	386
147.0639	41
159.0922	162
160.0859	18
161.0983	1
170.0603	32
171.0628	3
172.9774	24
174.092	1
188.1767	999
189.0739	393
190.0765	38
191.0787	2
203.0824	3
205.0976	183
206.1007	24
