Mass spectrum: Trimethyl Sphingosine (d18:1); ESI-TOF; MS2; CE: 0.6458333;  [M+H]+
Name: Trimethyl Sphingosine (d18:1)
Class: NA
Formula: [C21H44NO2]+
Exact mass: 342.33666
SMILES: [H]OC([H])([H])C([H])(C([H])(O[H])C([H])=C([H])C([H])([H])C([H])([H])C([H])([H])C([H])([H])C([H])([H])C([H])([H])C([H])([H])C([H])([H])C([H])([H])C([H])([H])C([H])([H])C([H])([H])C([H])([H])[H])[N+](C([H])([H])[H])(C([H])([H])[H])C([H])([H])[H]
InChI: InChI=1S/C21H44NO2/c1-5-6-7-8-9-10-11-12-13-14-15-16-17-18-21(24)20(19-23)22(2,3)4/h17-18,20-21,23-24H,5-16,19H2,1-4H3/q+1
Instrument: waters xevo g2 TOF
Instrument type: ESI-TOF
Ms type: MS2
Ion mode: POSITIVE
Ionization: ESI
Collision energy: 0.6458333
Column name: Acquity CSHC18
Retention time: 4.264 min
Base peak: 343.34520
Precursor m/z: 343.34520
Precursor type: [M+H]+
m/z	relative intensity
60.0822	101
61.0854	3
67.0553	12
69.071	21
79.055	23
81.0707	40
83.0864	32
85.1022	6
91.0553	1
93.0706	39
94.0746	2
95.0863	53
97.1017	32
98.105	1
101.0606	6
107.0862	39
108.0892	3
109.1021	27
111.1175	10
119.0501	3
121.1023	48
123.1177	8
135.1176	33
136.1204	3
137.1337	2
149.1334	10
163.1487	2
165.1639	1
247.2412	3
280.3005	6
310.3113	11
311.3099	1
342.3375	999
343.3406	249
344.3437	33
344.3476	7
736.5725	1
