Mass spectrum: N-Acetylgalactosamine; ESI-TOF; MS2; CE: 0.6458333;  [M+H]+
Name: N-Acetylgalactosamine
Class: NA
Formula: C8H15NO6
Exact mass: 221.08994
SMILES: CC(=O)NC1C(O)OC(CO)C(O)C1O
InChI: InChI=1S/C8H15NO6/c1-3(11)9-5-7(13)6(12)4(2-10)15-8(5)14/h4-8,10,12-14H,2H2,1H3,(H,9,11)
Instrument: waters xevo g2 TOF
Instrument type: ESI-TOF
Ms type: MS2
Ion mode: POSITIVE
Ionization: ESI
Collision energy: 0.6458333
Column name: Acquity CSHC18
Retention time: 0.570 min
Base peak: 222.09794
Precursor m/z: 222.09794
Precursor type: [M+H]+
m/z	relative intensity
72.9378	162
80.0495	46
84.0446	401
96.0445	550
96.9611	2
96.9613	2
97.9688	999
98.0599	300
99.9691	211
109.0285	55
111.0209	2
126.0553	269
130.0082	2
130.0083	2
137.988	2
138.0552	396
139.0581	25
139.9638	2
140.0011	65
141.9591	277
144.0657	621
155.9748	165
168.066	2
169.0064	2
180.9829	76
184.9766	36
186.076	67
187.0796	2
188.0811	2
204.0869	62
205.0895	2
214.9885	83
215.9944	45
222.0974	28
223.102	2
228.1059	96
238.9879	25
241.071	2
244.0797	587
245.0833	2
256.0135	87
257.0208	2
287.8909	2
303.0029	2
321.0162	2
322.0228	2
351.6162	2
376.0593	25
449.1963	2
465.1696	2
466.1744	2
496.0977	2
497.1052	2
