Mass spectrum: Prostaglandin F1-alpha Alcohol; ESI-TOF; MS2; CE: 6.0000000;  [M+H]+
Name: Prostaglandin F1-alpha Alcohol
Class: NA
Formula: C20H38O4
Exact mass: 342.27701
SMILES: CCCCCC(C=CC1C(CC(C1CCCCCCCO)O)O)O
InChI: InChI=1S/C20H38O4/c1-2-3-7-10-16(22)12-13-18-17(19(23)15-20(18)24)11-8-5-4-6-9-14-21/h12-13,16-24H,2-11,14-15H2,1H3
Instrument: waters xevo g2 TOF
Instrument type: ESI-TOF
Ms type: MS2
Ion mode: POSITIVE
Ionization: ESI
Collision energy: 6.0000000
Column name: Acquity CSHC18
Retention time: 3.761 min
Base peak: 343.28501
Precursor m/z: 343.28501
Precursor type: [M+H]+
m/z	relative intensity
81.0701	13
93.0707	6
95.0873	12
109.1025	19
113.9646	43
123.1172	6
125.0971	4
135.1176	17
147.1171	8
149.1332	12
161.1335	41
163.1492	30
165.1266	2
173.6111	2
175.1487	23
177.1651	10
182.1143	17
187.1482	48
188.1526	5
189.1638	14
191.1643	11
193.1645	9
197.1541	13
207.1741	8
221.1906	5
245.2268	55
246.2177	2
263.237	365
264.2401	59
271.242	55
272.2407	7
279.2661	8
281.2481	479
282.2514	84
289.2532	999
290.2559	207
291.2662	71
292.2693	11
305.2477	21
306.2094	12
307.2633	806
308.267	167
309.2724	25
319.1925	15
323.258	13
324.2583	3
325.2752	159
326.2769	30
335.1657	58
336.1707	11
344.2455	30
344.7475	11
