Mass spectrum: Sclareol; LC-ESI-QTOF; MS2; CE: 15.00;  [M-C4H12O2+H]+
Name: Sclareol
Class: NA
Formula: C20H36O2
Exact mass: 308.2715
SMILES: CC1(CCCC2(C1CCC(C2CCC(C)(C=C)O)(C)O)C)C
InChI: InChI=1S/C20H36O2/c1-7-18(4,21)13-9-16-19(5)12-8-11-17(2,3)15(19)10-14-20(16,6)22/h7,15-16,21-22H,1,8-14H2,2-6H3
Instrument: Bruker MicrOTOF-Q
Instrument type: LC-ESI-QTOF
Ms type: MS2
Ion mode: POSITIVE
Ionization: ESI
Collision energy: 15.00
Column name: Acquity CSHC18
Retention time: NA
Base peak: 217.1951
Precursor m/z: 217.1951
Precursor type: [M-C4H12O2+H]+
m/z	relative intensity
91.05	14
93.07	18
95.08	42
105.07	97
107.08	94
109.1	95
119.08	125
121.1	140
122.1	36
123.13	46
133.1	81
135.12	33
138.13	20
145.11	23
147.11	96
149.13	49
159.13	18
161.13	445
162.14	43
173.13	14
174.62	25
175.15	89
176.17	44
185.62	21
189.16	77
190.17	22
217.19	999
218.2	48
218.61	18
