Mass spectrum: Adenine; LC-ESI-ITFT; MS2; CE: 100;  [M-H]-
Name: Adenine
Class: Organoheterocyclic compounds; Imidazopyrimidines; Purines and purine derivatives
Formula: C5H5N5
Exact mass: 135.05450
SMILES: NC1=C2NC=NC2=NC=N1
InChI: InChI=1S/C5H5N5/c6-4-3-5(9-1-7-3)10-2-8-4/h1-2H,(H3,6,7,8,9,10)
Instrument: Thermo Scientific Q-Exactive Focus
Instrument type: LC-ESI-ITFT
Ms type: MS2
Ion mode: NEGATIVE
Ionization: ESI
Collision energy: 100
Column name: Acquity CSHC18
Retention time: 2.581 min
Base peak: 134.04723
Precursor m/z: 134.04723
Precursor type: [M-H]-
m/z	relative intensity
58.8172	825
60.7304	806
80.5781	826
99.9975	807
109.3821	782
115.7695	773
124.8895	822
126.645	999
140.2387	884
148.5096	796
