Mass spectrum: L-(+)-Glutamic acid; LC-ESI-QTOF; MS2; CE: 15.00;  [M-H]-
Name: L-(+)-Glutamic acid
Class: NA
Formula: C5H9NO4
Exact mass: 147.0532
SMILES: C(CC(=O)O)C(C(=O)O)N
InChI: InChI=1S/C5H9NO4/c6-3(5(9)10)1-2-4(7)8/h3H,1-2,6H2,(H,7,8)(H,9,10)
Instrument: Bruker MicrOTOF-Q
Instrument type: LC-ESI-QTOF
Ms type: MS2
Ion mode: NEGATIVE
Ionization: ESI
Collision energy: 15.00
Column name: Acquity CSHC18
Retention time: NA
Base peak: 146.0459
Precursor m/z: 146.0459
Precursor type: [M-H]-
m/z	relative intensity
48.8258	71
50.1918	46
62.1486	44
65.5632	54
77.1254	89
78.3072	83
81.557	56
82.4243	83
87.9683	54
88.8274	56
93.0099	63
99.6234	38
100.0112	46
101.0539	67
102.0004	77
102.0547	999
102.535	42
103.0561	65
111.4462	56
114.847	69
115.4869	40
128.0364	263
129.2527	38
130.9022	38
141.2335	52
146.0468	65
148.5392	60
162.1245	69
218.6361	40
228.3767	38
411.5775	67
411.7135	56
437.382	58
482.8019	63
538.8429	40
577.197	38
596.4502	50
663.6142	40
725.3805	38
754.0107	44
818.7253	79
870.3455	56
972.7537	56
