Mass spectrum: L-Cystathionine; ESI-TOF; MS2; CE: 6.0000000;  [M+H]+
Name: L-Cystathionine
Class: NA
Formula: C7H14N2O4S
Exact mass: 222.06743
SMILES: NC(CCSCC(N)C(O)=O)C(O)=O
InChI: InChI=1S/C7H14N2O4S/c8-4(6(10)11)1-2-14-3-5(9)7(12)13/h4-5H,1-3,8-9H2,(H,10,11)(H,12,13)
Instrument: waters xevo g2 TOF
Instrument type: ESI-TOF
Ms type: MS2
Ion mode: POSITIVE
Ionization: ESI
Collision energy: 6.0000000
Column name: Acquity CSHC18
Retention time: 0.517 min
Base peak: 223.07543
Precursor m/z: 223.07543
Precursor type: [M+H]+
m/z	relative intensity
72.938	4
88.0222	203
113.9644	129
124.9566	7
130.9671	5
131.9511	32
134.0276	999
135.0299	55
136.0237	53
147.953	2
158.997	1
160.9905	12
163.0284	1
184.9856	69
191.0238	11
194.1201	2
206.0472	7
213.9221	1
223.0755	806
224.0779	79
225.072	40
231.9966	20
234.9634	1
235.8702	3
239.0698	5
245.0549	5
258.885	15
259.1727	1
261.0244	1
276.9956	5
286.923	1
302.1958	9
365.1027	1
408.7848	2
