Mass spectrum: Squalene; LC-ESI-ITFT; MS2; CE: 60;  [M+H]+
Name: Squalene
Class: Lipids and lipid-like molecules; Prenol lipids; Triterpenoids
Formula: C30H50
Exact mass: 410.39125
SMILES: CC(C)=CCC\C(C)=C/CC\C(C)=C\CC\C=C(/C)CC\C=C(/C)CCC=C(C)C
InChI: InChI=1S/C30H50/c1-25(2)15-11-19-29(7)23-13-21-27(5)17-9-10-18-28(6)22-14-24-30(8)20-12-16-26(3)4/h15-18,23-24H,9-14,19-22H2,1-8H3/b27-17+,28-18+,29-23-,30-24+
Instrument: Thermo Scientific Q-Exactive Focus
Instrument type: LC-ESI-ITFT
Ms type: MS2
Ion mode: POSITIVE
Ionization: ESI
Collision energy: 60
Column name: Acquity CSHC18
Retention time: 2.014 min
Base peak: 411.39853
Precursor m/z: 411.39853
Precursor type: [M+H]+
m/z	relative intensity
55.0548	504
67.0548	569
69.0704	612
79.0546	284
81.0703	999
93.0702	471
95.0859	670
105.0702	257
107.0858	327
109.1014	232
