Mass spectrum: Androstenedione; LC-ESI-QFT; MS2; CE: 30eV;  [M-H]-
Name: Androstenedione
Class: NA
Formula: C19H30O2
Exact mass: 290.22458
SMILES: [H][C@@]12CCC(=O)[C@@]1(C)CC[C@@]1([H])[C@@]2([H])CC[C@@]2([H])C[C@H](O)CC[C@]12C
InChI: InChI=1S/C19H30O2/c1-18-9-7-13(20)11-12(18)3-4-14-15-5-6-17(21)19(15,2)10-8-16(14)18/h12-16,20H,3-11H2,1-2H3/t12-,13+,14-,15-,16-,18-,19-/m0/s1
Instrument: Q-Exactive Orbitrap, Thermo Scientfic; Ultimate 3000 HPLC, Thermo Scientfic
Instrument type: LC-ESI-QFT
Ms type: MS2
Ion mode: NEGATIVE
Ionization: ESI
Collision energy: 30eV
Column name: Acquity CSHC18
Retention time: 9.233 min
Base peak: 289.2173
Precursor m/z: 289.2173
Precursor type: [M-H]-
m/z	relative intensity
54.0504	566
62.4203	752
63.84	578
66.3794	597
76.3271	708
77.8489	651
79.9558	928
129.2782	684
162.2467	789
171.3691	773
214.2273	763
289.1472	999
303.5308	984
