Mass spectrum: 3-Glc-Echinocystic acid; ESI-QTOF; MS2; CE: 30 eV;  [M-H]-
Name: 3-Glc-Echinocystic acid
Class: Saponin
Formula: C36H58O9
Exact mass: 634.4081
SMILES: CC1(C)CCC2(C(C1)(C3=CCC4(C5(C)CCC(C(C)(C)C5(CCC4(C)C3(C)CC2(O)[H])[H])(OC6(C(C(C(C(CO)(O6)[H])(O)[H])(O)[H])(O)[H])[H])[H])[H])[H])C(=O)O
InChI: InChI=1S/C36H58O9/c1-31(2)14-15-36(30(42)43)20(16-31)19-8-9-23-33(5)12-11-25(45-29-28(41)27(40)26(39)21(18-37)44-29)32(3,4)22(33)10-13-34(23,6)35(19,7)17-24(36)38/h8,20-29,37-41H,9-18H2,1-7H3,(H,42,43)
Instrument: Synapt (HDMS 1st gen)
Instrument type: ESI-QTOF
Ms type: MS2
Ion mode: NEGATIVE
Ionization: ESI
Collision energy: 30 eV
Column name: Acquity CSHC18
Retention time: 25.050 min
Base peak: 633.4015
Precursor m/z: 633.4015
Precursor type: [M-H]-
Precursor intensity: 868.38
m/z	relative intensity
101.0076	333
207.1391	999
440.4522	333
627.9074	999
