Mass spectrum: THREONINE; LC-ESI-QFT; MS2; CE: 30eV;  [M+H]+
Name: THREONINE
Class: NA
Formula: C4H9NO3
Exact mass: 119.05824
SMILES: C[C@@H](O)[C@H](N)C(O)=O
InChI: InChI=1S/C4H9NO3/c1-2(6)3(5)4(7)8/h2-3,6H,5H2,1H3,(H,7,8)/t2-,3+/m1/s1
Instrument: Q-Exactive Orbitrap, Thermo Scientfic; Ultimate 3000 HPLC, Thermo Scientfic
Instrument type: LC-ESI-QFT
Ms type: MS2
Ion mode: POSITIVE
Ionization: ESI
Collision energy: 30eV
Column name: Acquity CSHC18
Retention time: 0.534 min
Base peak: 120.0655
Precursor m/z: 120.0655
Precursor type: [M+H]+
Precursor intensity: 186
m/z	relative intensity
56.0503	476
56.5927	1
57.0343	29
57.0536	5
57.6175	2
58.0659	4
59.0693	1
60.0771	2
62.9504	2
64.3398	2
69.1333	1
74.0608	999
74.4143	2
75.0449	8
75.0641	13
78.9976	10
83.7269	2
84.0451	42
91.0549	10
93.0705	4
97.0082	60
102.0555	293
103.0585	4
115.5294	2
117.8967	2
118.968	3
119.0859	4
119.09	65
120.024	110
120.0561	5
120.066	80
120.0701	2
120.0908	15
121.0282	2
128.3584	2
133.9482	2
