Mass spectrum: 1-O-Sinapoyl-beta-D-glucose; LC-ESI-QTOF; MS2; CE: 50eV;  [M+Na]+
Name: 1-O-Sinapoyl-beta-D-glucose
Class: Phenylpropanoid
Formula: C17H22O10
Exact mass: 386.1213
SMILES: COC1=CC(=CC(=C1O)OC)C=CC(=O)OC2C(C(C(C(O2)CO)O)O)O
InChI: InChI=1S/C17H22O10/c1-24-9-5-8(6-10(25-2)13(9)20)3-4-12(19)27-17-16(23)15(22)14(21)11(7-18)26-17/h3-6,11,14-18,20-23H,7H2,1-2H3
Instrument: TIMS-TOF Pro, Bruker Daltonik; Elute UHPLC System, Bruker Daltonik
Instrument type: LC-ESI-QTOF
Ms type: MS2
Ion mode: POSITIVE
Ionization: ESI
Collision energy: 50eV
Column name: Acquity CSHC18
Retention time: 4.335 min
Base peak: 409.1095
Precursor m/z: 409.1095
Precursor type: [M+Na]+
Precursor intensity: 18921.13
m/z	relative intensity
185.041	550
365.1145	133
401.7045	177
409.1063	999
