Mass spectrum: Glycerol; LC-ESI-ITFT; MS2; CE: 40;  [M-H]-
Name: Glycerol
Class: Organic oxygen compounds; Organooxygen compounds; Carbohydrates and carbohydrate conjugates
Formula: C3H8O3
Exact mass: 92.04734
SMILES: OCC(O)CO
InChI: InChI=1S/C3H8O3/c4-1-3(6)2-5/h3-6H,1-2H2
Instrument: Thermo Scientific Q-Exactive Focus
Instrument type: LC-ESI-ITFT
Ms type: MS2
Ion mode: NEGATIVE
Ionization: ESI
Collision energy: 40
Column name: Acquity CSHC18
Retention time: 1.475 min
Base peak: 91.04007
Precursor m/z: 91.04007
Precursor type: [M-H]-
m/z	relative intensity
65.7185	999
66.2568	870
84.3179	885
92.9133	975
95.7342	964
97.6952	856
97.8427	941
100.7361	873
108.0674	861
108.1742	900
