Mass spectrum: Nicotianoside II; LC-ESI-QTOF; MS2; CE: 29eV;  [M+NH4]+
Name: Nicotianoside II
Class: Diterpene
Formula: C44H68O22
Exact mass: 948.4202
SMILES: C[C@H]1[C@@H]([C@H]([C@H]([C@@H](O1)O[C@@H]2[C@H](O[C@H]([C@@H]([C@H]2O)O)O[C@@](C)(CC/C=C(\C)/CC/C=C(\C)/CC/C=C(/C)\CO[C@H]3[C@@H]([C@H]([C@@H]([C@H](O3)COC(=O)CC(=O)O)O)O)O)C=C)COC(=O)CC(=O)O)O)O)O
InChI: InChI=1S/C44H68O22/c1-7-44(6,66-43-39(58)36(55)40(27(64-43)21-60-31(50)18-29(47)48)65-42-38(57)34(53)32(51)25(5)62-42)16-10-15-23(3)12-8-11-22(2)13-9-14-24(4)19-61-41-37(56)35(54)33(52)26(63-41)20-59-30(49)17-28(45)46/h7,11,14-15,25-27,32-43,51-58H,1,8-10,12-13,16-21H2,2-6H3,(H,45,46)(H,47,48)/b22-11+,23-15+,24-14-/t25-,26+,27+,32-,33+,34+,35-,36+,37+,38+,39+,40+,41+,42-,43-,44+/m0/s1
Instrument: Impact II qTOF
Instrument type: LC-ESI-QTOF
Ms type: MS2
Ion mode: POSITIVE
Ionization: ESI
Collision energy: 29eV
Column name: Acquity CSH C18 column (particle size 1.7 μm, column length 2.1 × 50 mm) (Waters)
Retention time: 7.34 min
Base peak: 966.4568
Precursor m/z: 966.4568
Precursor type: [M+NH4]+
m/z	relative intensity
213.0389	93
215.1784	57
231.0498	168
237.0757	43
249.0602	151
255.086	46
271.2417	999
272.2452	239
289.2514	58
341.0867	161
359.0963	500
360.1006	90
377.1073	314
378.1113	49
381.279	108
395.1179	960
396.1212	176
399.2887	173
413.1295	96
417.2987	687
418.3023	194
435.3091	55
461.0922	91
479.102	179
497.1134	136
501.2839	101
519.294	214
520.2987	99
537.3043	205
538.3102	58
589.1376	69
607.1477	61
625.1591	59
629.3302	56
647.3417	121
665.3525	181
666.3553	49
683.3612	97
