Mass spectrum: Bergapten; LC-ESI-QTOF; MS2; CE: 35.00;  [M+H]+
Name: Bergapten
Class: NA
Formula: C12H8O4
Exact mass: 216.0423
SMILES: COC1=C2C=CC(=O)OC2=CC3=C1C=CO3
InChI: InChI=1S/C12H8O4/c1-14-12-7-2-3-11(13)16-10(7)6-9-8(12)4-5-15-9/h2-6H,1H3
Instrument: Bruker MicrOTOF-Q
Instrument type: LC-ESI-QTOF
Ms type: MS2
Ion mode: POSITIVE
Ionization: ESI
Collision energy: 35.00
Column name: Acquity CSHC18
Retention time: NA
Base peak: 217.0508
Precursor m/z: 217.0508
Precursor type: [M+H]+
m/z	relative intensity
114.0419	1
115.0531	14
116.0549	2
117.0343	17
118.0401	230
119.0437	21
120.0227	5
127.0177	12
128.0254	18
129.0316	33
130.0403	8
131.0481	27
132.0196	5
135.0059	7
145.0278	212
145.3679	1
145.453	1
146.0357	297
146.4739	1
147.0388	31
148.0202	5
156.0207	88
157.0245	12
158.0359	4
159.0424	3
173.0234	96
173.2913	1
174.0314	999
174.3314	2
174.3894	2
174.5095	1
175.0348	111
175.3768	1
176.036	10
178.024	8
179.0168	1
184.0157	10
187.0459	2
201.8444	1
202.0264	322
202.4077	1
203.0301	43
204.0327	5
217.0515	1
