Mass spectrum: OXOPROLINE; LC-ESI-QTOF; MS2; CE: 40;  [M-H]-
Name: OXOPROLINE
Class: NA
Formula: C5H7NO3
Exact mass: 129.04259
SMILES: C1CC(=O)NC1C(=O)O
InChI: InChI=1S/C5H7NO3/c7-4-2-1-3(6-4)5(8)9/h3H,1-2H2,(H,6,7)(H,8,9)
Instrument: Agilent 6530Â Q-TOF LC/MS
Instrument type: LC-ESI-QTOF
Ms type: MS2
Ion mode: NEGATIVE
Ionization: ESI
Collision energy: 40
Column name: NA
Retention time: 0.200 min
Base peak: 128.03812
Precursor m/z: 128.03812
Precursor type: [M-H]-
Precursor intensity: 190
m/z	relative intensity
41.0129	358
42.0159	555
52.0266	709
57.0649	766
58.8899	999
