Mass spectrum: Tagitinin E; LC-ESI-ITFT; MS2; CE: 50eV;  [M+H]+
Name: Tagitinin E
Class: Sesquiterpenelactone; Heliangolide
Formula: C19H26O6
Exact mass: 350.1729
SMILES: C/C/1=C/[C@@H]2[C@@H]([C@@H](C[C@@]3([C@H](O3)C[C@@H]1O)C)OC(=O)C(C)C)C(=C)C(=O)O2
InChI: InChI=1S/C19H26O6/c1-9(2)17(21)24-14-8-19(5)15(25-19)7-12(20)10(3)6-13-16(14)11(4)18(22)23-13/h6,9,12-16,20H,4,7-8H2,1-3,5H3/b10-6-/t12-,13+,14+,15+,16-,19+/m0/s1
Instrument: Q Exactive Plus, ThermoFisher Scientific
Instrument type: LC-ESI-ITFT
Ms type: MS2
Ion mode: POSITIVE
Ionization: ESI
Collision energy: 50eV
Column name: Acquity CSHC18
Retention time: 6.009 min
Base peak: 351.1797
Precursor m/z: 351.1797
Precursor type: [M+H]+
Precursor intensity: 77688310
m/z	relative intensity
58.6001	35
66.6699	35
68.7068	244
69.0516	34
69.4248	27
71.0499	38
78.2845	29
87.7507	28
91.0548	77
93.0704	167
95.0499	999
97.065	54
97.4361	60
97.4415	85
105.071	45
117.0705	211
119.0856	141
121.0647	56
131.0855	135
135.0805	53
142.0775	48
143.0867	41
145.0647	38
145.1011	57
155.0858	51
156.0928	36
157.102	48
159.0814	37
171.1173	72
181.1026	59
224.3766	32
