Mass spectrum: SHIKIMATE; LC-ESI-QTOF; MS2; CE: 20;  [M-H]-
Name: SHIKIMATE
Class: NA
Formula: C7H10O5
Exact mass: 174.05282
SMILES: O[C@@H]1CC(=C[C@@H](O)[C@H]1O)C(O)=O
InChI: InChI=1S/C7H10O5/c8-4-1-3(7(11)12)2-5(9)6(4)10/h1,4-6,8-10H,2H2,(H,11,12)/t4-,5-,6-/m1/s1
Instrument: Agilent 6530Â Q-TOF LC/MS
Instrument type: LC-ESI-QTOF
Ms type: MS2
Ion mode: NEGATIVE
Ionization: ESI
Collision energy: 20
Column name: NA
Retention time: 0.200 min
Base peak: 173.04681
Precursor m/z: 173.04681
Precursor type: [M-H]-
Precursor intensity: 113
m/z	relative intensity
41.0116	95
43.0299	122
53.0457	147
55.0246	155
58.0097	165
65.0484	166
71.0304	193
73.0355	194
81.0378	219
83.0608	234
93.0519	245
111.0437	350
137.026	999
