Mass spectrum: Cysteic acid; LC-ESI-ITFT; MS2; CE: 60;  [M-H]-
Name: Cysteic acid
Class: Organic acids and derivatives; Carboxylic acids and derivatives; Amino acids, peptides, and analogues
Formula: C3H7NO5S
Exact mass: 169.00449
SMILES: NC(CS(O)(=O)=O)C(O)=O
InChI: InChI=1S/C3H7NO5S/c4-2(3(5)6)1-10(7,8)9/h2H,1,4H2,(H,5,6)(H,7,8,9)
Instrument: Thermo Scientific Q-Exactive Focus
Instrument type: LC-ESI-ITFT
Ms type: MS2
Ion mode: NEGATIVE
Ionization: ESI
Collision energy: 60
Column name: Acquity CSHC18
Retention time: 2.026 min
Base peak: 167.99722
Precursor m/z: 167.99722
Precursor type: [M-H]-
m/z	relative intensity
63.9612	229
73.8072	22
79.9561	999
80.9639	908
102.7596	23
118.9083	25
156.6988	22
165.1933	23
176.6324	22
186.4036	22
