Mass spectrum: 8-iso Prostaglandin F2-beta; ESI-TOF; MS2; CE: 6.0000000;  [M+H]+
Name: 8-iso Prostaglandin F2-beta
Class: NA
Formula: C20H34O5
Exact mass: 354.24062
SMILES: CCCCCC(C=CC1C(CC(C1CC=CCCCC(=O)O)O)O)O
InChI: InChI=1S/C20H34O5/c1-2-3-6-9-15(21)12-13-17-16(18(22)14-19(17)23)10-7-4-5-8-11-20(24)25/h4,7,12-13,15-19,21-23H,2-3,5-6,8-11,14H2,1H3,(H,24,25)
Instrument: waters xevo g2 TOF
Instrument type: ESI-TOF
Ms type: MS2
Ion mode: POSITIVE
Ionization: ESI
Collision energy: 6.0000000
Column name: Acquity CSHC18
Retention time: 3.478 min
Base peak: 355.24862
Precursor m/z: 355.24862
Precursor type: [M+H]+
m/z	relative intensity
159.1172	1
166.5825	2
167.0886	10
173.1149	6
175.1105	2
179.0967	5
183.0975	1
185.1144	4
187.1118	11
189.1664	2
203.1068	14
205.1235	7
215.1795	1
217.1237	11
229.1964	5
235.1668	32
239.1792	6
241.1952	6
247.2028	7
255.2085	9
257.1902	234
258.1932	39
259.1854	4
263.2001	30
264.2053	3
265.2044	153
266.2194	28
273.2198	14
275.2001	138
276.2032	16
277.2131	11
283.2057	137
284.209	25
285.2142	5
291.2312	22
293.2097	10
301.2165	999
302.22	228
303.2284	47
304.2334	7
317.2077	7
319.2274	655
320.231	147
321.2348	19
335.2163	5
337.2387	128
338.2418	17
347.1313	11
