Mass spectrum: Phosphoglyceric acid; LC-ESI-QTOF; MS2; CE: 60;  [M-H]-
Name: Phosphoglyceric acid
Class: NA
Formula: C3H7O7P
Exact mass: 185.9929
SMILES: C(C(C(=O)O)O)OP(=O)(O)O
InChI: InChI=1S/C3H7O7P/c4-2(3(5)6)1-10-11(7,8)9/h2,4H,1H2,(H,5,6)(H2,7,8,9)
Instrument: impact II
Instrument type: LC-ESI-QTOF
Ms type: MS2
Ion mode: NEGATIVE
Ionization: ESI
Collision energy: 60
Column name: Acquity CSHC18
Retention time: 1.857 min
Base peak: 184.9855
Precursor m/z: 184.9855
Precursor type: [M-H]-
m/z	relative intensity
78.9595	999
