Mass spectrum: ADP; LC-ESI-ITFT; MS2; CE: 40;  [M-H]-
Name: ADP
Class: Nucleosides, nucleotides, and analogues; Purine nucleotides; Purine ribonucleotides
Formula: C10H15N5O10P2
Exact mass: 427.02941
SMILES: NC1=NC=NC2=C1N=CN2[C@@H]1O[C@H](COP(O)(=O)OP(O)(O)=O)[C@@H](O)[C@H]1O
InChI: InChI=1S/C10H15N5O10P2/c11-8-5-9(13-2-12-8)15(3-14-5)10-7(17)6(16)4(24-10)1-23-27(21,22)25-26(18,19)20/h2-4,6-7,10,16-17H,1H2,(H,21,22)(H2,11,12,13)(H2,18,19,20)/t4-,6-,7-,10-/m1/s1
Instrument: Thermo Scientific Q-Exactive Focus
Instrument type: LC-ESI-ITFT
Ms type: MS2
Ion mode: NEGATIVE
Ionization: ESI
Collision energy: 40
Column name: Acquity CSHC18
Retention time: 1.481 min
Base peak: 426.02213
Precursor m/z: 426.02213
Precursor type: [M-H]-
m/z	relative intensity
78.956	1
78.9578	999
92.5135	1
96.9684	26
134.0461	209
158.9244	355
174.9792	7
192.9899	3
211.0007	6
272.957	15
