Mass spectrum: SEROTONIN; LC-ESI-QTOF; MS2; CE: 40;  [M+H]+
Name: SEROTONIN
Class: NA
Formula: C10H12N2O
Exact mass: 176.09496
SMILES: NCCC1=CNC2=CC=C(O)C=C12
InChI: InChI=1S/C10H12N2O/c11-4-3-7-6-12-10-2-1-8(13)5-9(7)10/h1-2,5-6,12-13H,3-4,11H2
Instrument: Agilent 6530Â Q-TOF LC/MS
Instrument type: LC-ESI-QTOF
Ms type: MS2
Ion mode: POSITIVE
Ionization: ESI
Collision energy: 40
Column name: NA
Retention time: 0.200 min
Base peak: 177.10513
Precursor m/z: 177.10513
Precursor type: [M+H]+
Precursor intensity: 74.5
m/z	relative intensity
40.0331	23
41.0401	23
42.0374	24
50.0142	27
51.0428	28
52.0385	29
53.0438	30
54.0419	30
55.0301	32
63.0398	32
64.0219	36
65.0624	37
66.0479	40
67.0631	40
74.0139	45
75.0232	48
77.0722	54
78.0666	56
79.0775	60
80.0591	61
87.0245	62
88.0352	63
89.0707	65
90.0714	67
91.075	70
92.0484	70
93.0546	71
94.0551	85
102.0554	92
103.0856	96
104.0801	100
105.0823	104
106.0657	118
107.0656	126
113.0534	143
114.0519	146
115.2032	150
115.5934	157
115.877	162
116.0837	181
117.0955	185
118.0525	190
120.0599	211
128.0605	238
129.6871	241
130.1051	246
131.0875	281
132.0802	326
133.0866	328
134.0537	328
140.0685	332
141.0776	365
142.0903	370
143.0963	378
144.0646	559
145.0534	576
158.086	633
159.0929	718
160.092	999
