Mass spectrum: Inosine; LC-ESI-QTOF; MS2; CE: 30;  [M-H]-
Name: Inosine
Class: NA
Formula: C10H12N4O5
Exact mass: 268.08077
SMILES: C1=NC2=C(C(=O)N1)N=CN2C3C(C(C(O3)CO)O)O
InChI: InChI=1S/C10H12N4O5/c15-1-4-6(16)7(17)10(19-4)14-3-13-5-8(14)11-2-12-9(5)18/h2-4,6-7,10,15-17H,1H2,(H,11,12,18)
Instrument: impact II
Instrument type: LC-ESI-QTOF
Ms type: MS2
Ion mode: NEGATIVE
Ionization: ESI
Collision energy: 30
Column name: Acquity CSHC18
Retention time: 1.732 min
Base peak: 267.07320
Precursor m/z: 267.07320
Precursor type: [M-H]-
m/z	relative intensity
65.0149	2
79.9575	4
80.0259	2
80.9653	5
82.9612	2
92.0254	55
93.0282	2
96.96	2
98.9557	2
108.02	71
108.0329	1
109.0233	3
126.0302	4
133.015	1
134.0225	3
135.0307	999
135.0451	82
135.0725	2
135.0833	13
135.1029	16
135.1129	16
135.1237	23
135.1409	15
135.1796	6
135.1886	10
135.2051	2
135.22	2
135.2338	3
135.257	2
135.2694	2
135.2838	2
135.3036	2
135.3194	2
135.3486	2
135.3681	3
135.3825	1
135.3973	3
135.4056	2
135.422	1
135.4312	1
135.4598	1
135.4823	1
135.5059	1
135.52	1
135.535	1
135.5555	1
135.5726	1
135.6207	1
135.6401	1
135.6524	1
135.6922	1
136.0335	56
136.048	1
147.0304	2
149.046	12
177.0408	4
187.1513	1
201.0408	2
231.0514	2
267.072	20
268.0753	2
