Mass spectrum: Nicotianoside Ia; LC-ESI-QTOF; MS2; CE: 35eV;  [M+NH4]+
Name: Nicotianoside Ia
Class: Diterpene
Formula: C41H66O19
Exact mass: 862.4198
SMILES: O=C(O)CC(=O)OC[C@H]1O[C@@H](OCC(/C)=C\CCC(\C)=C\CCC(\C)=C\CC[C@](C)(O[C@@H]2O[C@H](CO)[C@@H](O[C@@H]3O[C@@H](C)[C@H](O)[C@@H](O)[C@H]3O)[C@H](O)[C@H]2O)C=C)[C@H](O)[C@@H](O)[C@@H]1O
InChI: InChI=1S/C41H66O19/c1-7-41(6,60-40-36(53)33(50)37(25(18-42)57-40)59-39-35(52)31(48)29(46)24(5)56-39)16-10-15-22(3)12-8-11-21(2)13-9-14-23(4)19-55-38-34(51)32(49)30(47)26(58-38)20-54-28(45)17-27(43)44/h7,11,14-15,24-26,29-40,42,46-53H,1,8-10,12-13,16-20H2,2-6H3,(H,43,44)/b21-11+,22-15+,23-14-/t24-,25+,26+,29-,30+,31+,32-,33+,34+,35+,36+,37+,38+,39-,40-,41+/m0/s1
Instrument: Impact II qTOF
Instrument type: LC-ESI-QTOF
Ms type: MS2
Ion mode: POSITIVE
Ionization: ESI
Collision energy: 35eV
Column name: Direct injection MS/MS
Retention time: 0.9 min
Base peak: 880.4570
Precursor m/z: 880.4570
Precursor type: [M+NH4]+
m/z	relative intensity
133.1009	20
135.1168	47
149.1323	112
175.148	82
189.1632	72
201.1627	77
203.1786	73
213.0403	56
215.1796	179
216.1837	27
237.0752	33
249.0612	180
255.0864	44
257.2257	27
271.2421	999
272.2455	201
289.2517	97
290.2554	19
309.1185	77
341.0872	46
359.0973	90
377.1079	62
381.2782	23
395.118	97
411.1142	19
417.2994	121
418.3021	32
519.2954	20
554.3316	32
559.2873	25
