Mass spectrum: Stachyose; ESI-TOF; MS2; CE: 0.6458333;  [M+H]+
Name: Stachyose
Class: NA
Formula: C24H42O21
Exact mass: 666.22186
SMILES: OCC1OC(OCC2OC(OCC3OC(OC4(CO)OC(CO)C(O)C4O)C(O)C(O)C3O)C(O)C(O)C2O)C(O)C(O)C1O
InChI: InChI=1S/C24H42O21/c25-1-6-10(28)14(32)17(35)21(41-6)39-3-8-11(29)15(33)18(36)22(42-8)40-4-9-12(30)16(34)19(37)23(43-9)45-24(5-27)20(38)13(31)7(2-26)44-24/h6-23,25-38H,1-5H2
Instrument: waters xevo g2 TOF
Instrument type: ESI-TOF
Ms type: MS2
Ion mode: POSITIVE
Ionization: ESI
Collision energy: 0.6458333
Column name: Acquity CSHC18
Retention time: 0.554 min
Base peak: 667.22986
Precursor m/z: 667.22986
Precursor type: [M+H]+
m/z	relative intensity
85.029	613
91.0398	358
95.9736	58
97.0295	358
100.9581	71
114.9695	64
127.0394	364
130.0095	3
135.9926	3
135.9929	3
138.9913	3
145.0502	440
163.0606	711
173.9799	3
178.1223	3
272.0693	49
325.1137	317
326.1173	3
337.0186	48
337.0209	45
343.1247	3
353.0931	3
379.0315	320
439.0537	548
487.1668	106
488.1704	3
499.0727	198
505.1745	3
529.1367	3
558.089	147
559.0913	38
684.257	3
689.2111	999
690.2134	3
1009.3474	3
