Mass spectrum: 8-Hydroxyquercetin; LC-ESI-QTOF; MS2; CE: 50eV;  [M+H]+
Name: 8-Hydroxyquercetin
Class: Flavonol
Formula: C15H10O8
Exact mass: 318.0376
SMILES: C1=CC(=C(C=C1C2=C(C(=O)C3=C(O2)C(=C(C=C3O)O)O)O)O)O
InChI: InChI=1S/C15H10O8/c16-6-2-1-5(3-7(6)17)14-13(22)12(21)10-8(18)4-9(19)11(20)15(10)23-14/h1-4,16-20,22H
Instrument: TIMS-TOF Pro, Bruker Daltonik; Elute UHPLC System, Bruker Daltonik
Instrument type: LC-ESI-QTOF
Ms type: MS2
Ion mode: POSITIVE
Ionization: ESI
Collision energy: 50eV
Column name: Acquity CSHC18
Retention time: 5.894 min
Base peak: 319.0418
Precursor m/z: 319.0418
Precursor type: [M+H]+
Precursor intensity: 153122.2
m/z	relative intensity
29.9024	1
62.0271	1
67.0117	1
68.9978	8
71.0142	1
77.0398	2
81.0341	4
94.0407	1
98.647	1
105.0331	3
113.0202	3
115.055	3
123.0079	6
136.015	2
137.0234	12
138.0263	2
140.0261	2
142.0233	1
147.0416	3
153.0172	5
160.0476	1
164.0406	1
169.0118	21
171.0393	6
173.0205	1
180.8414	1
181.0121	5
184.9892	2
199.0401	5
217.0368	1
227.0318	5
229.0492	1
245.0397	14
246.0466	4
254.9938	1
263.0575	8
290.0358	2
301.0328	4
311.9178	1
318.0309	6
318.9681	5
319.005	14
319.0418	999
319.3338	1
