Mass spectrum: (-)-Bilobalide; LC-ESI-QFT; MS2; CE: 15,30,45 (NCE);  [2M+NH4]+
Name: (-)-Bilobalide
Class: NA
Formula: C15H18O8
Exact mass: 326.1002
SMILES: CC(C)(C)C1(O)CC2OC(=O)CC22C(=O)OC3OC(=O)C(O)C123
InChI: InChI=1S/C15H18O8/c1-12(2,3)14(20)4-6-13(5-7(16)21-6)10(19)23-11-15(13,14)8(17)9(18)22-11/h6,8,11,17,20H,4-5H2,1-3H3
Instrument: QE Focus, Thermo Scientfic; UPLC I-Class, Waters
Instrument type: LC-ESI-QFT
Ms type: MS2
Ion mode: POSITIVE
Ionization: ESI
Collision energy: 15,30,45 (NCE)
Column name: Acquity CSHC18
Retention time: 1.487 min
Base peak: 670.2355
Precursor m/z: 670.2355
Precursor type: [2M+NH4]+
Precursor intensity: 2112357
m/z	relative intensity
53.5998	9
55.0911	9
57.0708	19
59.5665	9
79.9628	11
95.4471	11
100.1333	10
111.0808	17
117.0698	12
119.9829	12
149.0596	21
168.6954	11
189.0919	11
191.107	17
226.6875	12
235.0985	14
285.7255	12
309.0964	88
310.8763	12
327.1081	308
344.1346	999
552.7347	13
