Mass spectrum: 2-oxo-3,4 epoxy-8(2-methyl-2,3-epoxybutanoyl)-guaia-10(14),11(13)-dien-6,12-olide; LC-ESI-ITFT; MS2; CE: 50eV;  [M+H]+
Name: 2-oxo-3,4 epoxy-8(2-methyl-2,3-epoxybutanoyl)-guaia-10(14),11(13)-dien-6,12-olide
Class: Sesquiterpenelactone; Guaianolidei
Formula: C20H22O7
Exact mass: 374.1366
SMILES: CC1OC1(C)C(=O)O[C@@H]4CC(=C)[C@@H]5C(=O)C2OC2(C)[C@@H]5[C@H]3OC(=O)C(=C)[C@@H]34
InChI: InChI=1S/C20H22O7/c1-7-6-10(24-18(23)19(4)9(3)26-19)12-8(2)17(22)25-15(12)13-11(7)14(21)16-20(13,5)27-16/h9-13,15-16H,1-2,6H2,3-5H3/t9?,10-,11+,12-,13+,15+,16?,19?,20?/m1/s1
Instrument: Q Exactive Plus, ThermoFisher Scientific
Instrument type: LC-ESI-ITFT
Ms type: MS2
Ion mode: POSITIVE
Ionization: ESI
Collision energy: 50eV
Column name: Acquity CSHC18
Retention time: 6.837 min
Base peak: 375.1434
Precursor m/z: 375.1434
Precursor type: [M+H]+
Precursor intensity: 93679700
m/z	relative intensity
83.0143	1
85.0294	1
95.049	1
97.0288	1
99.0451	7
109.0295	2
111.0449	1
121.0649	1
143.0852	5
149.0597	2
157.1003	7
159.0797	1
161.06	6
163.0754	1
167.0864	2
169.1017	5
171.0792	26
173.0596	5
175.0743	6
175.1116	2
185.0591	6
185.095	29
187.0763	1
189.0897	6
195.0805	1
197.0962	2
198.0682	1
199.0763	17
199.1139	1
203.0702	8
203.1062	6
213.0905	217
214.0935	8
215.108	5
217.0845	90
221.0793	1
231.1008	43
232.1068	1
241.0859	117
242.0901	2
243.1008	2
259.0953	867
260.0991	31
277.1063	12
287.1262	1
297.1841	2
329.137	9
331.1158	1
347.1506	5
357.133	39
375.1404	999
