Mass spectrum: 7-Hydroxy-8-methoxychromen-2-one; LC-ESI-ITFT; MS2; CE: 45eV;  [M+H]+
Name: 7-Hydroxy-8-methoxychromen-2-one
Class: coumarin
Formula: C10H8O4
Exact mass: 192.0423
SMILES: COC1=C(C=CC2=C1OC(=O)C=C2)O
InChI: InChI=1S/C10H8O4/c1-13-10-7(11)4-2-6-3-5-8(12)14-9(6)10/h2-5,11H,1H3
Instrument: LTQ Orbitrap XL, Thermo Scientfic; Dionex Ultimate 300
Instrument type: LC-ESI-ITFT
Ms type: MS2
Ion mode: POSITIVE
Ionization: ESI
Collision energy: 45eV
Column name: Alltima C18
Retention time: 16.33 min
Base peak: 193.0479
Precursor m/z: 193.0479
Precursor type: [M+H]+
m/z	relative intensity
121.0206	6
146.9712	14
148.9474	600
177.8898	999
