Mass spectrum: 15-ketocholestane; ESI-TOF; MS2; CE: 6.0000000;  [M+H]+
Name: 15-ketocholestane
Class: NA
Formula: C27H46O2
Exact mass: 402.34978
SMILES: [H]OC4([H])(C([H])([H])C([H])([H])C2(C([H])([H])[H])(C([H])(C([H])([H])C([H])([H])C1([H])(C3([H])(C(=O)C([H])([H])C([H])(C([H])(C([H])([H])[H])C([H])([H])C([H])([H])C([H])([H])C([H])(C([H])([H])[H])C([H])([H])[H])C3(C([H])([H])[H])(C([H])([H])C([H])([H])C12([H])))))C4([H])([H])))
InChI: InChI=1S/C27H46O2/c1-17(2)7-6-8-18(3)23-16-24(29)25-21-10-9-19-15-20(28)11-13-26(19,4)22(21)12-14-27(23,25)5/h17-23,25,28H,6-16H2,1-5H3
Instrument: waters xevo g2 TOF
Instrument type: ESI-TOF
Ms type: MS2
Ion mode: POSITIVE
Ionization: ESI
Collision energy: 6.0000000
Column name: Acquity CSHC18
Retention time: 8.947 min
Base peak: 403.35778
Precursor m/z: 403.35778
Precursor type: [M+H]+
m/z	relative intensity
81.0714	1
95.0868	3
135.1183	4
149.133	2
161.1334	3
163.1136	3
165.1644	1
168.6142	3
179.1809	5
187.1492	13
189.1649	5
193.196	2
201.1652	9
205.1593	7
213.1656	4
217.1955	7
219.1757	24
231.1762	4
241.1965	3
245.1913	6
255.2117	5
259.2419	22
261.2555	1
271.2418	2
273.2577	17
274.261	2
313.2902	71
314.2938	12
315.1634	3
331.3003	245
332.3029	64
333.3078	8
336.2187	4
354.1919	9
355.2156	3
356.1878	4
367.3367	323
368.3407	96
369.3458	5
385.3474	999
386.3503	311
387.3552	45
395.1689	3
401.3432	17
402.3421	5
403.3579	774
404.3611	241
