Mass spectrum: L-Glutamine; LC-ESI-ITFT; MS2; CE: 10;  [M+H]+
Name: L-Glutamine
Class: Organic acids and derivatives; Carboxylic acids and derivatives; Amino acids, peptides, and analogues
Formula: C5H10N2O3
Exact mass: 146.06914
SMILES: N[C@@H](CCC(N)=O)C(O)=O
InChI: InChI=1S/C5H10N2O3/c6-3(5(9)10)1-2-4(7)8/h3H,1-2,6H2,(H2,7,8)(H,9,10)/t3-/m0/s1
Instrument: Thermo Scientific Q-Exactive Focus
Instrument type: LC-ESI-ITFT
Ms type: MS2
Ion mode: POSITIVE
Ionization: ESI
Collision energy: 10
Column name: Acquity CSHC18
Retention time: 0.348 min
Base peak: 147.07642
Precursor m/z: 147.07642
Precursor type: [M+H]+
m/z	relative intensity
56.0501	5
79.549	4
84.0448	752
85.0287	4
101.0712	63
102.0553	33
123.9645	16
130.0499	999
131.5004	4
147.0763	83
