Mass spectrum: Perivine; ESI-QTOF; MS2; CE: 30 eV;  [M+H]+
Name: Perivine
Class: NA
Formula: C20H22N2O3
Exact mass: 338.1630
SMILES: CC(=C1CNC2(CC=3C4=CC=CC=C4NC3C(CC1(C2(C(=O)OC)[H])[H])=O)[H])[H]
InChI: InChI=1S/C20H22N2O3/c1-3-11-10-21-16-8-14-12-6-4-5-7-15(12)22-19(14)17(23)9-13(11)18(16)20(24)25-2/h3-7,13,16,18,21-22H,8-10H2,1-2H3
Instrument: Synapt (HDMS 1st gen)
Instrument type: ESI-QTOF
Ms type: MS2
Ion mode: POSITIVE
Ionization: ESI
Collision energy: 30 eV
Column name: Acquity CSHC18
Retention time: 9.684 min
Base peak: 339.1718
Precursor m/z: 339.1718
Precursor type: [M+H]+
Precursor intensity: 2949.25
m/z	relative intensity
279.1522	22
307.1471	999
309.1402	43
339.1675	380
