Mass spectrum: 4-HYDROXYBENZALDEHYDE; LC-ESI-QTOF; MS2; CE: 20;  [M-H]-
Name: 4-HYDROXYBENZALDEHYDE
Class: NA
Formula: C7H6O2
Exact mass: 122.03678
SMILES: OC1=CC=C(C=O)C=C1
InChI: InChI=1S/C7H6O2/c8-5-6-1-3-7(9)4-2-6/h1-5,9H
Instrument: Agilent 6530Â Q-TOF LC/MS
Instrument type: LC-ESI-QTOF
Ms type: MS2
Ion mode: NEGATIVE
Ionization: ESI
Collision energy: 20
Column name: NA
Retention time: 0.200 min
Base peak: 121.03234
Precursor m/z: 121.03234
Precursor type: [M-H]-
Precursor intensity: 113
m/z	relative intensity
41.0074	121
91.018	184
92.0494	198
93.0368	218
120.0252	707
121.0483	999
