Mass spectrum: Phenylacetylglutamine; LC-ESI-ITFT; MS2; CE: 20;  [M+H]+
Name: Phenylacetylglutamine
Class: Organic acids and derivatives; Carboxylic acids and derivatives; Amino acids, peptides, and analogues
Formula: C13H16N2O4
Exact mass: 264.11101
SMILES: NC(=O)CC[C@H](NC(=O)CC1=CC=CC=C1)C(O)=O
InChI: InChI=1S/C13H16N2O4/c14-11(16)7-6-10(13(18)19)15-12(17)8-9-4-2-1-3-5-9/h1-5,10H,6-8H2,(H2,14,16)(H,15,17)(H,18,19)/t10-/m0/s1
Instrument: Thermo Scientific Q-Exactive Focus
Instrument type: LC-ESI-ITFT
Ms type: MS2
Ion mode: POSITIVE
Ionization: ESI
Collision energy: 20
Column name: Acquity CSHC18
Retention time: 0.630 min
Base peak: 265.11829
Precursor m/z: 265.11829
Precursor type: [M+H]+
m/z	relative intensity
56.05	4
83.0607	57
84.0447	281
91.0545	251
101.0711	42
102.0551	14
129.0658	83
130.0499	999
136.0756	143
147.0762	78
