Mass spectrum: GUANOSINE MONOPHOSPHATE; LC-ESI-QFT; MS2; CE: 30eV;  [M-H]-
Name: GUANOSINE MONOPHOSPHATE
Class: NA
Formula: C10H14N5O8P
Exact mass: 363.05800
SMILES: NC1=NC2=C(N=CN2[C@@H]2O[C@H](COP(O)(O)=O)[C@@H](O)[C@H]2O)C(=O)N1
InChI: InChI=1S/C10H14N5O8P/c11-10-13-7-4(8(18)14-10)12-2-15(7)9-6(17)5(16)3(23-9)1-22-24(19,20)21/h2-3,5-6,9,16-17H,1H2,(H2,19,20,21)(H3,11,13,14,18)/t3-,5-,6-,9-/m1/s1
Instrument: Q-Exactive Orbitrap, Thermo Scientfic; Ultimate 3000 HPLC, Thermo Scientfic
Instrument type: LC-ESI-QFT
Ms type: MS2
Ion mode: NEGATIVE
Ionization: ESI
Collision energy: 30eV
Column name: Acquity CSHC18
Retention time: 0.685 min
Base peak: 362.0507
Precursor m/z: 362.0507
Precursor type: [M-H]-
Precursor intensity: 164
m/z	relative intensity
52.6207	1
60.1382	1
62.9623	1
64.7849	1
66.2199	1
70.9393	1
76.3451	1
76.5021	1
76.7868	1
78.9574	999
96.968	83
96.9712	2
114.9478	4
128.3311	1
128.9268	1
133.0144	2
150.0407	37
150.9789	11
151.0186	1
158.9377	13
172.8623	2
192.3398	1
192.9894	1
202.9282	10
211.0005	116
212.0041	2
217.8756	1
264.8195	1
306.8856	4
319.0445	5
362.0509	65
363.052	4
