Mass spectrum: DEOXYADENOSINE MONOPHOSPHATE; LC-ESI-QFT; MS2; CE: 30eV;  [M+H]+
Name: DEOXYADENOSINE MONOPHOSPHATE
Class: NA
Formula: C10H14N5O6P
Exact mass: 331.06817
SMILES: NC1=NC=NC2=C1N=CN2[C@H]1C[C@H](O)[C@@H](COP(O)(O)=O)O1
InChI: InChI=1S/C10H14N5O6P/c11-9-8-10(13-3-12-9)15(4-14-8)7-1-5(16)6(21-7)2-20-22(17,18)19/h3-7,16H,1-2H2,(H2,11,12,13)(H2,17,18,19)/t5-,6+,7+/m0/s1
Instrument: Q-Exactive Orbitrap, Thermo Scientfic; Ultimate 3000 HPLC, Thermo Scientfic
Instrument type: LC-ESI-QFT
Ms type: MS2
Ion mode: POSITIVE
Ionization: ESI
Collision energy: 30eV
Column name: Acquity CSHC18
Retention time: 0.823 min
Base peak: 332.0754
Precursor m/z: 332.0754
Precursor type: [M+H]+
Precursor intensity: 143
m/z	relative intensity
53.0394	1
81.0342	174
82.0375	1
136.062	999
137.0591	4
137.0654	20
234.099	5
314.0651	1
332.0763	3
