Mass spectrum: 5-HYDROXYTRYPTOPHAN; LC-ESI-QTOF; MS2; CE: 10;  [M-H]-
Name: 5-HYDROXYTRYPTOPHAN
Class: NA
Formula: C11H12N2O3
Exact mass: 220.08479
SMILES: N[C@@H](CC1=CNC2=C1C=C(O)C=C2)C(O)=O
InChI: InChI=1S/C11H12N2O3/c12-9(11(15)16)3-6-5-13-10-2-1-7(14)4-8(6)10/h1-2,4-5,9,13-14H,3,12H2,(H,15,16)/t9-/m0/s1
Instrument: Agilent 6530Â Q-TOF LC/MS
Instrument type: LC-ESI-QTOF
Ms type: MS2
Ion mode: NEGATIVE
Ionization: ESI
Collision energy: 10
Column name: NA
Retention time: 0.200 min
Base peak: 219.07508
Precursor m/z: 219.07508
Precursor type: [M-H]-
Precursor intensity: 180
m/z	relative intensity
74.0358	121
130.067	158
131.0367	163
132.0595	197
133.0432	218
144.0673	294
157.05	498
158.0649	638
175.0896	777
219.098	999
