Mass spectrum: Malic acid; LC-ESI-ITFT; MS2; CE: 40;  [M-H]-
Name: Malic acid
Class: Organic acids and derivatives; Hydroxy acids and derivatives; Beta hydroxy acids and derivatives
Formula: C4H6O5
Exact mass: 134.02152
SMILES: OC(CC(O)=O)C(O)=O
InChI: InChI=1S/C4H6O5/c5-2(4(8)9)1-3(6)7/h2,5H,1H2,(H,6,7)(H,8,9)
Instrument: Thermo Scientific Q-Exactive Focus
Instrument type: LC-ESI-ITFT
Ms type: MS2
Ion mode: NEGATIVE
Ionization: ESI
Collision energy: 40
Column name: Acquity CSHC18
Retention time: 1.477 min
Base peak: 133.01425
Precursor m/z: 133.01425
Precursor type: [M-H]-
m/z	relative intensity
66.3528	420
70.938	394
71.0126	999
72.9919	610
76.5398	400
98.3689	406
135.1617	411
141.7119	368
141.784	495
152.7135	408
