Mass spectrum: L-Kynurenine; LC-ESI-ITFT; MS2; CE: 30;  [M+H]+
Name: L-Kynurenine
Class: Organic oxygen compounds; Organooxygen compounds; Carbonyl compounds
Formula: C10H12N2O3
Exact mass: 208.08479
SMILES: N[C@@H](CC(=O)C1=CC=CC=C1N)C(O)=O
InChI: InChI=1S/C10H12N2O3/c11-7-4-2-1-3-6(7)9(13)5-8(12)10(14)15/h1-4,8H,5,11-12H2,(H,14,15)/t8-/m0/s1
Instrument: Thermo Scientific Q-Exactive Focus
Instrument type: LC-ESI-ITFT
Ms type: MS2
Ion mode: POSITIVE
Ionization: ESI
Collision energy: 30
Column name: Acquity CSHC18
Retention time: 0.913 min
Base peak: 209.09207
Precursor m/z: 209.09207
Precursor type: [M+H]+
m/z	relative intensity
74.0241	339
91.0546	299
92.0498	163
94.0655	761
99.008	125
104.0498	151
118.0653	825
120.0446	584
132.0444	410
146.06	999
