Mass spectrum: 6-HYDROXYNICOTINATE; LC-ESI-QTOF; MS2; CE: 10;  [M+H]+
Name: 6-HYDROXYNICOTINATE
Class: NA
Formula: C6H5NO3
Exact mass: 139.02694
SMILES: OC(=O)C1=CN=C(O)C=C1
InChI: InChI=1S/C6H5NO3/c8-5-2-1-4(3-7-5)6(9)10/h1-3H,(H,7,8)(H,9,10)
Instrument: Agilent 6530Â Q-TOF LC/MS
Instrument type: LC-ESI-QTOF
Ms type: MS2
Ion mode: POSITIVE
Ionization: ESI
Collision energy: 10
Column name: NA
Retention time: 0.200 min
Base peak: 140.03714
Precursor m/z: 140.03714
Precursor type: [M+H]+
Precursor intensity: 102.5
m/z	relative intensity
44.9969	21
51.0342	22
53.0037	25
54.9468	26
66.0504	27
67.0251	28
78.056	29
80.0124	31
81.0513	35
94.049	36
95.0242	44
96.0465	60
122.0613	132
122.9081	158
139.0962	217
140.2353	291
140.6461	607
140.8048	999
