Mass spectrum: PHENYLETHANOLAMINE; LC-ESI-QTOF; MS2; CE: 20;  [M+H]+
Name: PHENYLETHANOLAMINE
Class: NA
Formula: C8H11NO
Exact mass: 137.08406
SMILES: NCC(O)C1=CC=CC=C1
InChI: InChI=1S/C8H11NO/c9-6-8(10)7-4-2-1-3-5-7/h1-5,8,10H,6,9H2
Instrument: Agilent 6530Â Q-TOF LC/MS
Instrument type: LC-ESI-QTOF
Ms type: MS2
Ion mode: POSITIVE
Ionization: ESI
Collision energy: 20
Column name: NA
Retention time: 0.200 min
Base peak: 138.09129
Precursor m/z: 138.09129
Precursor type: [M+H]+
Precursor intensity: 127.5
m/z	relative intensity
42.041	29
51.0426	32
54.0311	36
65.0483	36
77.2648	36
77.639	49
78.0485	49
79.0543	49
80.0536	49
91.0855	58
91.2826	65
93.0901	95
94.0687	99
102.0636	179
103.3182	190
103.8723	296
104.0651	348
105.0555	635
118.0832	701
119.0755	897
120.1301	999
