Mass spectrum: γ-Isoalantolactone-Glutathione; LC-ESI-ITFT; MS2; CE: 50eV;  [M+H]+
Name: γ-Isoalantolactone-Glutathione
Class: Sesquiterpenelactone; Eudesmanolide
Formula: C25H37N3O8S
Exact mass: 539.2301
SMILES: O=C(O)[C@@H](N)CCC(=O)N[C@@H](CSCC1C(=O)O[C@@H]2C[C@@]3(C)CCCC(C)=C3C[C@H]12)C(=O)NCC(=O)O
InChI: InChI=1S/C25H37N3O8S/c1-13-4-3-7-25(2)9-19-14(8-16(13)25)15(24(35)36-19)11-37-12-18(22(32)27-10-21(30)31)28-20(29)6-5-17(26)23(33)34/h14-15,17-19H,3-12,26H2,1-2H3,(H,27,32)(H,28,29)(H,30,31)(H,33,34)/t14-,15?,17+,18+,19-,25-/m1/s1
Instrument: Q Exactive Plus, ThermoFisher Scientific
Instrument type: LC-ESI-ITFT
Ms type: MS2
Ion mode: POSITIVE
Ionization: ESI
Collision energy: 50eV
Column name: Acquity CSHC18
Retention time: 7.303 min
Base peak: 540.2374
Precursor m/z: 540.2374
Precursor type: [M+H]+
Precursor intensity: 135373500
m/z	relative intensity
145.0806	166
247.1337	999
