Mass spectrum: Anthocyanin.A11; LC-ESI-ITFT; MS2; CE: 30;  [M]+
Name: Anthocyanin.A11
Class: NA
Formula: C61H66O34
Exact mass: 1342.3435
SMILES: COC1=CC(=CC(=C1O)OC)C=CC(=O)OC2C(C(COC2OC3C(C(C(OC3OC4=C(OC5=CC(=O)C=C(C5=C4)OC6C(C(C(C(O6)COC(=O)CC(=O)O)O)O)O)C7=CC(=C(C=C7)O)O)COC(=O)C=CC8=CC=C(C=C8)OC9C(C(C(C(O9)CO)O)O)O)O)O)O)O
InChI: InChI=1S/C61H66O34/c1-82-35-13-25(14-36(83-2)46(35)73)6-12-43(70)94-56-45(72)32(66)21-86-60(56)95-57-52(79)49(76)40(22-84-42(69)11-5-24-3-8-28(9-4-24)87-58-53(80)50(77)47(74)38(20-62)91-58)93-61(57)90-37-18-29-33(88-55(37)26-7-10-30(64)31(65)15-26)16-27(63)17-34(29)89-59-54(81)51(78)48(75)39(92-59)23-85-44(71)19-41(67)68/h3-18,32,38-40,45,47-54,56-62,64-66,72-81H,19-23H2,1-2H3,(H,67,68)
Instrument: q exactive focus thermo
Instrument type: LC-ESI-ITFT
Ms type: MS2
Ion mode: POSITIVE
Ionization: ESI
Collision energy: 30
Column name: Acquity CSHC18
Retention time: 6.544 min
Base peak: 1342.3450
Precursor m/z: 1342.3450
Precursor type: [M]+
Precursor intensity: 148243.6
m/z	relative intensity
102.9592	5
103.9521	6
105.0497	6
107.0698	6
109.0195	8
111.0257	8
111.9765	9
116.0726	9
116.983	10
117.9475	10
118.9549	12
119.0552	12
120.0346	12
128.0563	12
132.0629	15
133.0039	15
136.0532	16
137.0603	17
138.0728	17
143.0791	17
145.075	18
149.0269	20
150.9629	22
152.0311	34
153.0802	38
161.096	38
162.0458	46
176.0566	52
193.0679	57
203.1255	118
283.177	746
347.1727	999
