Mass spectrum: Nicotianoside Ia; LC-ESI-QTOF; MS2; CE: 25eV;  [M+NH4]+
Name: Nicotianoside Ia
Class: Diterpene
Formula: C41H66O19
Exact mass: 862.4198
SMILES: O=C(O)CC(=O)OC[C@H]1O[C@@H](OCC(/C)=C\CCC(\C)=C\CCC(\C)=C\CC[C@](C)(O[C@@H]2O[C@H](CO)[C@@H](O[C@@H]3O[C@@H](C)[C@H](O)[C@@H](O)[C@H]3O)[C@H](O)[C@H]2O)C=C)[C@H](O)[C@@H](O)[C@@H]1O
InChI: InChI=1S/C41H66O19/c1-7-41(6,60-40-36(53)33(50)37(25(18-42)57-40)59-39-35(52)31(48)29(46)24(5)56-39)16-10-15-22(3)12-8-11-21(2)13-9-14-23(4)19-55-38-34(51)32(49)30(47)26(58-38)20-54-28(45)17-27(43)44/h7,11,14-15,24-26,29-40,42,46-53H,1,8-10,12-13,16-20H2,2-6H3,(H,43,44)/b21-11+,22-15+,23-14-/t24-,25+,26+,29-,30+,31+,32-,33+,34+,35+,36+,37+,38+,39-,40-,41+/m0/s1
Instrument: Impact II qTOF
Instrument type: LC-ESI-QTOF
Ms type: MS2
Ion mode: POSITIVE
Ionization: ESI
Collision energy: 25eV
Column name: Direct injection MS/MS
Retention time: 0.9 min
Base peak: 880.4570
Precursor m/z: 880.4570
Precursor type: [M+NH4]+
m/z	relative intensity
135.1171	17
149.1321	42
161.132	33
163.1475	47
175.148	30
177.1637	44
189.1632	30
203.179	27
213.0403	26
215.1789	74
231.2097	15
249.0613	165
255.087	22
271.2422	999
272.2451	190
273.0963	31
289.2528	108
290.2558	21
309.118	108
315.1068	19
341.0871	25
359.0971	118
360.1008	17
377.108	77
381.2789	31
395.1181	278
396.1211	45
399.2886	67
400.2931	16
411.1136	55
413.129	39
417.2995	277
418.3028	74
433.2954	17
435.3088	37
519.2951	34
537.3036	56
538.3085	16
554.3313	17
557.1708	27
665.3539	28
683.3649	29
880.4557	268
