Mass spectrum: N,N-DIMETHYL-1,4-PHENYLENEDIAMINE; LC-ESI-QTOF; MS2; CE: 20;  [M+H]+
Name: N,N-DIMETHYL-1,4-PHENYLENEDIAMINE
Class: NA
Formula: C8H12N2
Exact mass: 136.10005
SMILES: CN(C)C1=CC=C(C=C1)N
InChI: InChI=1S/C8H12N2/c1-10(2)8-5-3-7(9)4-6-8/h3-6H,9H2,1-2H3
Instrument: Agilent 6530Â Q-TOF LC/MS
Instrument type: LC-ESI-QTOF
Ms type: MS2
Ion mode: POSITIVE
Ionization: ESI
Collision energy: 20
Column name: NA
Retention time: 0.200 min
Base peak: 137.10472
Precursor m/z: 137.10472
Precursor type: [M+H]+
Precursor intensity: 14.5
m/z	relative intensity
53.0471	37
65.0453	42
66.0405	43
77.0435	47
78.0301	47
79.0561	48
80.076	48
90.0431	53
92.0528	53
93.0756	61
94.0763	63
95.0711	66
104.0439	67
106.0616	78
107.4027	79
108.068	86
108.2209	87
110.038	101
120.0681	109
121.1364	114
122.4032	155
122.8662	175
122.9742	231
123.0926	234
123.3049	643
135.0896	691
136.0973	867
137.1222	999
