Mass spectrum: SHIKIMATE; LC-ESI-QTOF; MS2; CE: 40;  [M-H]-
Name: SHIKIMATE
Class: NA
Formula: C7H10O5
Exact mass: 174.05282
SMILES: O[C@@H]1CC(=C[C@@H](O)[C@H]1O)C(O)=O
InChI: InChI=1S/C7H10O5/c8-4-1-3(7(11)12)2-5(9)6(4)10/h1,4-6,8-10H,2H2,(H,11,12)/t4-,5-,6-/m1/s1
Instrument: Agilent 6530Â Q-TOF LC/MS
Instrument type: LC-ESI-QTOF
Ms type: MS2
Ion mode: NEGATIVE
Ionization: ESI
Collision energy: 40
Column name: NA
Retention time: 0.200 min
Base peak: 173.04877
Precursor m/z: 173.04877
Precursor type: [M-H]-
Precursor intensity: 133
m/z	relative intensity
41.0151	120
43.0316	122
45.0003	130
53.0435	168
55.0288	178
64.0395	206
65.0554	439
67.0195	747
69.0366	749
71.0184	793
93.0521	999
