Mass spectrum: 3-METHYLADENINE; LC-ESI-QTOF; MS2; CE: 40;  [M+H]+
Name: 3-METHYLADENINE
Class: NA
Formula: C6H7N5
Exact mass: 149.07015
SMILES: CN1C=NC(N)=C2N=CN=C12
InChI: InChI=1S/C6H7N5/c1-11-3-10-5(7)4-6(11)9-2-8-4/h2-3H,7H2,1H3
Instrument: Agilent 6530Â Q-TOF LC/MS
Instrument type: LC-ESI-QTOF
Ms type: MS2
Ion mode: POSITIVE
Ionization: ESI
Collision energy: 40
Column name: NA
Retention time: 0.200 min
Base peak: 150.07720
Precursor m/z: 150.07720
Precursor type: [M+H]+
Precursor intensity: 69.5
m/z	relative intensity
40.0455	17
40.2029	17
40.3557	18
41.0357	18
41.7621	18
42.4072	18
43.0647	18
43.2462	18
43.3661	18
43.5474	19
44.0709	19
45.0676	19
51.0235	19
51.7238	19
52.1408	19
52.3875	19
52.6097	19
53.0464	20
53.2409	20
53.7597	20
53.8725	20
55.1375	20
56.5164	20
56.7385	21
57.1261	21
57.3938	21
57.5661	21
57.7205	22
58.0497	22
59.0716	22
64.0277	23
65.1392	23
65.4064	23
65.543	23
65.81	23
65.917	24
66.2604	24
67.2206	24
67.6169	25
68.0559	25
69.3399	33
69.8883	42
70.0657	61
71.0719	61
77.0257	62
78.8827	81
79.3049	81
80.0552	148
80.5071	150
81.8744	154
83.0961	165
91.0434	172
92.1219	192
92.5396	198
93.1028	207
93.2688	239
93.3546	269
93.5136	311
94.0759	317
94.3088	351
94.7429	351
95.0511	385
95.2692	397
96.2426	397
96.5601	424
106.1206	429
107.0639	433
107.23	451
107.5301	479
107.8497	489
108.9189	534
110.114	579
118.0351	587
119.0647	594
120.036	673
121.0711	745
123.1868	764
123.4825	777
133.0812	965
133.3326	973
134.0704	999
135.0854	17
150.1161	17
150.4709	18
