Mass spectrum: L-Alanine; LC-ESI-ITFT; MS2; CE: 10;  [M+H]+
Name: L-Alanine
Class: Organic acids and derivatives; Carboxylic acids and derivatives; Amino acids, peptides, and analogues
Formula: C3H7NO2
Exact mass: 89.04768
SMILES: C[C@H](N)C(O)=O
InChI: InChI=1S/C3H7NO2/c1-2(4)3(5)6/h2H,4H2,1H3,(H,5,6)/t2-/m0/s1
Instrument: Thermo Scientific Q-Exactive Focus
Instrument type: LC-ESI-ITFT
Ms type: MS2
Ion mode: POSITIVE
Ionization: ESI
Collision energy: 10
Column name: Acquity CSHC18
Retention time: 0.352 min
Base peak: 90.05496
Precursor m/z: 90.05496
Precursor type: [M+H]+
m/z	relative intensity
51.6414	40
57.8236	41
59.5387	44
61.9936	45
66.0828	42
68.001	41
70.9412	46
86.2415	43
90.0554	999
90.5546	42
