Mass spectrum: GLUCONATE; LC-ESI-QTOF; MS2; CE: 10;  [M-H]-
Name: GLUCONATE
Class: NA
Formula: C6H12O7
Exact mass: 196.05830
SMILES: OC[C@@H](O)[C@@H](O)[C@H](O)[C@@H](O)C(O)=O
InChI: InChI=1S/C6H12O7/c7-1-2(8)3(9)4(10)5(11)6(12)13/h2-5,7-11H,1H2,(H,12,13)/t2-,3-,4+,5-/m1/s1
Instrument: Agilent 6530Â Q-TOF LC/MS
Instrument type: LC-ESI-QTOF
Ms type: MS2
Ion mode: NEGATIVE
Ionization: ESI
Collision energy: 10
Column name: NA
Retention time: 0.200 min
Base peak: 195.05311
Precursor m/z: 195.05311
Precursor type: [M-H]-
Precursor intensity: 194
m/z	relative intensity
43.019	112
47.0137	127
57.0255	128
59.0243	159
71.0179	188
75.026	219
85.0325	232
87.0136	328
89.0258	492
99.0172	515
129.0335	899
195.0755	999
