Mass spectrum: Prostaglandin F2-alpha 1,15-lactone; ESI-TOF; MS2; CE: 6.0000000;  [M+H]+
Name: Prostaglandin F2-alpha 1,15-lactone
Class: NA
Formula: C20H32O4
Exact mass: 336.23006
SMILES: O[C@@H]1[C@H](C/C=C\CCCC(O[C@@H](CCCCC)/C=C/2)=O)[C@@H]2[C@H](O)C1
InChI: InChI=1S/C20H32O4/c1-2-3-6-9-15-12-13-17-16(18(21)14-19(17)22)10-7-4-5-8-11-20(23)24-15/h4,7,12-13,15-19,21-22H,2-3,5-6,8-11,14H2,1H3/b7-4-,13-12+/t15-,16+,17+,18-,19+/m0/s1
Instrument: waters xevo g2 TOF
Instrument type: ESI-TOF
Ms type: MS2
Ion mode: POSITIVE
Ionization: ESI
Collision energy: 6.0000000
Column name: Acquity CSHC18
Retention time: 4.438 min
Base peak: 337.23806
Precursor m/z: 337.23806
Precursor type: [M+H]+
m/z	relative intensity
95.0863	3
123.117	3
131.0864	7
145.1034	3
147.0784	5
149.0249	8
165.1072	1
173.1347	6
175.1303	6
181.1019	2
191.1472	2
199.113	11
200.1098	2
201.1624	4
203.144	17
205.194	11
215.1804	3
217.1223	18
221.1524	6
227.1602	3
229.1949	7
239.1779	12
247.2057	16
248.2094	2
255.2094	15
257.1901	100
259.2063	19
263.201	58
265.2038	257
266.2209	43
273.2211	13
274.2223	2
275.2016	145
276.2033	24
283.2058	170
284.2078	30
291.2316	31
292.2385	4
293.2108	28
299.1617	4
301.2165	999
302.1809	113
303.2293	63
317.2086	13
318.1276	26
319.2278	776
320.2313	174
321.2351	21
332.1622	10
336.2291	2
337.238	153
338.2391	30
