Mass spectrum: 2-Aminobenzoic acid (Anthranilic acid); ESI-TOF; MS2; CE: 6.0000000;  [M+H]+
Name: 2-Aminobenzoic acid (Anthranilic acid)
Class: NA
Formula: C7H7NO2
Exact mass: 137.04768
SMILES: NC1=CC=CC=C1C(O)=O
InChI: InChI=1S/C7H7NO2/c8-6-4-2-1-3-5(6)7(9)10/h1-4H,8H2,(H,9,10)
Instrument: waters xevo g2 TOF
Instrument type: ESI-TOF
Ms type: MS2
Ion mode: POSITIVE
Ionization: ESI
Collision energy: 6.0000000
Column name: Acquity CSHC18
Retention time: 2.136 min
Base peak: 138.05568
Precursor m/z: 138.05568
Precursor type: [M+H]+
m/z	relative intensity
92.0503	65
93.0371	4
115.0126	1
120.2091	999
121.2468	293
122.0506	38
123.0528	1
128.9868	2
137.0595	4
138.0555	64
139.0587	17
140.9966	2
143.0331	8
146.0608	2
152.0712	414
153.062	2
154.0718	1
156.5307	1
157.5501	1
159.0653	2
160.0369	3
175.0475	6
178.0469	1
182.0598	4
183.0917	2
184.9867	6
209.0713	11
210.0916	1
211.0576	1
214.0309	2
214.5735	1
222.0095	1
223.0246	2
224.0863	1
227.0588	18
228.0888	5
229.0362	1
235.0515	1
236.0699	16
237.0283	2
241.0945	26
244.5714	1
246.069	1
253.0609	15
254.0665	3
257.0997	21
258.0609	1
269.0572	3
271.0713	56
272.0776	43
285.0819	5
293.053	2
294.0602	1
299.0632	1
307.0038	1
313.0494	10
314.0533	1
316.0347	3
323.0256	1
328.0147	12
329.0198	4
331.0372	2
335.0307	3
345.2007	1
348.0505	68
350.0919	2
351.0028	1
358.0361	1
360.0975	1
362.1051	1
365.9862	1
367.012	1
404.0892	2
406.1015	7
407.1474	1
503.1582	1
509.0273	3
569.3153	1
589.0928	1
