Mass spectrum: N-Acetyl-L-aspartic acid; LC-ESI-ITFT; MS2; CE: 30;  [M-H]-
Name: N-Acetyl-L-aspartic acid
Class: Organic acids and derivatives; Carboxylic acids and derivatives; Amino acids, peptides, and analogues
Formula: C6H9NO5
Exact mass: 175.04807
SMILES: CC(=O)N[C@@H](CC(O)=O)C(O)=O
InChI: InChI=1S/C6H9NO5/c1-3(8)7-4(6(11)12)2-5(9)10/h4H,2H2,1H3,(H,7,8)(H,9,10)(H,11,12)/t4-/m0/s1
Instrument: Thermo Scientific Q-Exactive Focus
Instrument type: LC-ESI-ITFT
Ms type: MS2
Ion mode: NEGATIVE
Ionization: ESI
Collision energy: 30
Column name: Acquity CSHC18
Retention time: 0.931 min
Base peak: 174.04080
Precursor m/z: 174.04080
Precursor type: [M-H]-
m/z	relative intensity
58.0286	999
59.0127	139
71.0126	111
88.0391	909
97.7182	14
99.9791	15
135.3228	13
146.434	13
146.4374	14
189.9237	14
