Mass spectrum: Bixin; LC-ESI-QTOF; MS2; CE: -10, -35, -60V;  [M-H]-
Name: Bixin
Class: NA
Formula: C25H30O4
Exact mass: 394.2144
SMILES: CC(=CC=CC=C(C)C=CC=C(C)C=CC(=O)OC)C=CC=C(C)C=CC(=O)O
InChI: InChI=1S/C25H30O4/c1-20(12-8-14-22(3)16-18-24(26)27)10-6-7-11-21(2)13-9-15-23(4)17-19-25(28)29-5/h6-19H,1-5H3,(H,26,27)
Instrument: TripleToF 5600; Sciex
Instrument type: LC-ESI-QTOF
Ms type: MS2
Ion mode: NEGATIVE
Ionization: ESI
Collision energy: -10, -35, -60V
Column name: Acquity CSHC18
Retention time: 20.170 min
Base peak: 393.2138
Precursor m/z: 393.2138
Precursor type: [M-H]-
Precursor intensity: 323986.1
m/z	relative intensity
171.1024	180
183.1018	202
197.1157	222
209.1178	300
223.132	401
289.177	645
362.1934	999
