Mass spectrum: Elaidic acid; LC-ESI-ITFT; MS2; CE: 20;  [M-H]-
Name: Elaidic acid
Class: Lipids and lipid-like molecules; Fatty Acyls; Fatty acids and conjugates
Formula: C18H34O2
Exact mass: 282.25588
SMILES: CCCCCCCC\C=C\CCCCCCCC(O)=O
InChI: InChI=1S/C18H34O2/c1-2-3-4-5-6-7-8-9-10-11-12-13-14-15-16-17-18(19)20/h9-10H,2-8,11-17H2,1H3,(H,19,20)/b10-9+
Instrument: Thermo Scientific Q-Exactive Focus
Instrument type: LC-ESI-ITFT
Ms type: MS2
Ion mode: NEGATIVE
Ionization: ESI
Collision energy: 20
Column name: Acquity CSHC18
Retention time: 0.646 min
Base peak: 281.24860
Precursor m/z: 281.24860
Precursor type: [M-H]-
m/z	relative intensity
89.0232	17
92.5135	14
106.9918	27
150.9818	24
216.9217	102
226.9863	22
234.9211	21
234.9324	163
281.1225	13
281.2484	999
