Mass spectrum: Diosmetin; LC-ESI-QTOF; MS2; CE: 15;  [M-H]-
Name: Diosmetin
Class: NA
Formula: C16H12O6
Exact mass: 300.0634
SMILES: COC1=C(C=C(C=C1)C2=CC(=O)C3=C(C=C(C=C3O2)O)O)O
InChI: InChI=1S/C16H12O6/c1-21-13-3-2-8(4-10(13)18)14-7-12(20)16-11(19)5-9(17)6-15(16)22-14/h2-7,17-19H,1H3
Instrument: Bruker MicrOTOF-Q
Instrument type: LC-ESI-QTOF
Ms type: MS2
Ion mode: NEGATIVE
Ionization: ESI
Collision energy: 15
Column name: Acquity CSHC18
Retention time: NA
Base peak: 299.0561
Precursor m/z: 299.0561
Precursor type: [M-H]-
m/z	relative intensity
45.6279	8
47.1351	9
47.8671	7
49.6738	8
52.2986	8
56.8404	8
63.7414	8
70.4622	9
73.5394	8
76.5102	8
78.877	9
80.5269	8
83.6295	8
87.1588	8
90.5329	9
180.7157	13
274.5904	10
281.2604	59
293.9815	999
305.7858	7
309.0069	7
310.1915	7
310.9657	11
312.4593	6
313.4992	5
314.0883	6
315.0901	7
315.9518	6
316.6304	7
317.6352	4
318.3153	8
319.4404	5
320.762	5
321.8719	10
323.0254	7
324.437	5
325.0356	8
328.5619	13
329.5827	5
330.8364	5
332.624	5
333.2822	9
334.3396	5
334.7634	10
337.1226	12
337.9079	8
339.1172	9
341.8592	6
342.7183	5
344.7476	9
345.2158	12
345.6578	9
346.7501	11
347.8229	8
348.3743	5
352.6529	10
353.3466	12
354.2563	7
354.8689	9
355.4575	5
356.1884	9
357.2581	12
358.6303	7
359.7559	8
361.9561	6
363.0645	6
364.5487	7
365.8144	12
366.6326	9
370.5054	9
371.9395	10
374.5447	5
376.9177	10
380.1168	10
380.722	15
384.0104	8
385.3484	9
386.3515	8
394.6015	9
396.4615	8
397.2693	6
399.5688	6
405.4928	10
406.7276	6
408.4816	7
410.5973	10
412.279	7
412.8459	11
413.3209	9
413.9585	10
416.3755	10
419.2595	7
421.0249	12
425.8334	5
427.677	8
432.0521	8
435.3201	10
437.773	8
438.5002	7
446.8128	11
448.6851	13
451.5804	9
452.8837	11
454.7693	9
456.5027	9
461.8326	8
468.8631	8
485.3742	10
489.855	10
497.5485	6
499.2184	7
503.9993	5
505.319	9
506.7892	7
509.7591	6
511.6393	6
514.8083	7
521.2683	8
525.1285	8
544.0144	9
545.0208	8
547.902	9
563.1222	9
563.8544	5
567.2927	6
569.441	7
571.7736	7
579.6425	6
580.706	7
585.9155	7
600.0565	9
607.469	8
616.8609	7
651.1148	8
664.3235	5
665.336	4
666.3146	6
673.2615	9
675.5079	9
695.7825	9
706.5764	5
718.4441	8
723.7026	10
765.8253	9
796.8664	7
811.7195	5
862.3712	5
922.2198	8
946.5927	8
960.7952	5
977.9547	10
984.3782	6
