Mass spectrum: (+/-)- Orientaline; ESI-QTOF; MS2; CE: 1, 35, 60;  [M+H]+
Name: (+/-)- Orientaline
Class: Benzylisoquinoline alkaloid
Formula: C19H23NO4
Exact mass: 329.1627
SMILES: CN1CCC2=CC(=C(C=C2C1CC3=CC(=C(C=C3)O)OC)O)OC
InChI: InChI=1S/C19H23NO4/c1-20-7-6-13-10-19(24-3)17(22)11-14(13)15(20)8-12-4-5-16(21)18(9-12)23-2/h4-5,9-11,15,21-22H,6-8H2,1-3H3
Instrument: AB Sciex TripleToF 5500
Instrument type: ESI-QTOF
Ms type: MS2
Ion mode: POSITIVE
Ionization: ESI
Collision energy: 1, 35, 60
Column name: Acquity CSHC18
Retention time: 4.174 min
Base peak: 330.1649
Precursor m/z: 330.1649
Precursor type: [M+H]+
Precursor intensity: 1083357
m/z	relative intensity
117.0597	16
132.068	21
147.0641	24
149.0679	25
151.0644	27
160.0635	28
162.0692	30
165.0626	35
177.0688	41
180.0976	44
192.0957	53
194.0838	114
196.0654	114
239.0865	133
240.0993	525
329.1477	999
