Mass spectrum: SEBACATE; LC-ESI-QTOF; MS2; CE: 20;  [M-H]-
Name: SEBACATE
Class: NA
Formula: C10H18O4
Exact mass: 202.12051
SMILES: OC(=O)CCCCCCCCC(O)=O
InChI: InChI=1S/C10H18O4/c11-9(12)7-5-3-1-2-4-6-8-10(13)14/h1-8H2,(H,11,12)(H,13,14)
Instrument: Agilent 6530Â Q-TOF LC/MS
Instrument type: LC-ESI-QTOF
Ms type: MS2
Ion mode: NEGATIVE
Ionization: ESI
Collision energy: 20
Column name: NA
Retention time: 0.200 min
Base peak: 201.11422
Precursor m/z: 201.11422
Precursor type: [M-H]-
Precursor intensity: 175
m/z	relative intensity
57.04	118
111.0824	178
137.0933	232
139.1387	245
183.1218	629
201.1159	999
