Mass spectrum: Glucoraphanin; LC-ESI-QTOF; MS2; CE: 25.2;  [M-H]-
Name: Glucoraphanin
Class: NA
Formula: C12H23NO10S3
Exact mass: 437.0484
SMILES: CS(=O)CCCCC(=NOS(=O)(=O)O)SC1C(C(C(C(O1)CO)O)O)O
InChI: InChI=1S/C12H23NO10S3/c1-25(18)5-3-2-4-8(13-23-26(19,20)21)24-12-11(17)10(16)9(15)7(6-14)22-12/h7,9-12,14-17H,2-6H2,1H3,(H,19,20,21)
Instrument: Bruker MicrOTOF-Q
Instrument type: LC-ESI-QTOF
Ms type: MS2
Ion mode: NEGATIVE
Ionization: ESI
Collision energy: 25.2
Column name: Acquity CSHC18
Retention time: NA
Base peak: 436.0411
Precursor m/z: 436.0411
Precursor type: [M-H]-
m/z	relative intensity
79.9582	19
95.9128	454
96.9586	999
97.9486	41
98.9548	64
138.9714	24
178.0176	421
179.0163	32
194.0335	53
195.039	18
209.984	17
225.98	34
242.9839	17
259.0117	86
274.9868	66
276.9861	17
372.04	62
373.0432	18
