Mass spectrum: Homoeriodictyol; LC-ESI-ITFT; MS2; CE: 45eV;  [M+H]+
Name: Homoeriodictyol
Class: Flavonoid
Formula: C16H14O6
Exact mass: 302.0790
SMILES: COC1=C(C=CC(=C1)C2CC(=O)C3=C(C=C(C=C3O2)O)O)O
InChI: InChI=1S/C16H14O6/c1-21-14-4-8(2-3-10(14)18)13-7-12(20)16-11(19)5-9(17)6-15(16)22-13/h2-6,13,17-19H,7H2,1H3
Instrument: LTQ Orbitrap XL, Thermo Scientfic; Dionex Ultimate 300
Instrument type: LC-ESI-ITFT
Ms type: MS2
Ion mode: POSITIVE
Ionization: ESI
Collision energy: 45eV
Column name: Alltima C18
Retention time: 11.86 min
Base peak: 303.0867
Precursor m/z: 303.0867
Precursor type: [M+H]+
m/z	relative intensity
116.9598	8
145.0072	36
150.9523	67
170.9584	4
176.977	999
193.0837	2
215.2384	1
237.1541	2
257.0698	1
274.7917	1
