Mass spectrum: Cyclopamine; ESI-QTOF; MS2; CE: 1, 35, 60;  [M+H]+
Name: Cyclopamine
Class: steroidal alkaloid
Formula: C27H41NO2
Exact mass: 411.3137
SMILES: CC1CC2C(C(C3(O2)CCC4C5CC=C6CC(CCC6(C5CC4=C3C)C)O)C)NC1
InChI: InChI=1S/C27H41NO2/c1-15-11-24-25(28-14-15)17(3)27(30-24)10-8-20-21-6-5-18-12-19(29)7-9-26(18,4)23(21)13-22(20)16(27)2/h5,15,17,19-21,23-25,28-29H,6-14H2,1-4H3
Instrument: AB Sciex TripleToF 5500
Instrument type: ESI-QTOF
Ms type: MS2
Ion mode: POSITIVE
Ionization: ESI
Collision energy: 1, 35, 60
Column name: Acquity CSHC18
Retention time: 7.190 min
Base peak: 412.3203
Precursor m/z: 412.3203
Precursor type: [M+H]+
Precursor intensity: 1486423
m/z	relative intensity
85.0617	284
102.0869	485
115.0724	948
411.0104	999
