Mass spectrum: 3',4',5,7-Tetrahydroxyflavone; LC-ESI-QTOF; MS2; CE: 15.00;  [M-H]-
Name: 3',4',5,7-Tetrahydroxyflavone
Class: NA
Formula: C15H10O6
Exact mass: 286.0477
SMILES: C1=CC(=C(C=C1C2=CC(=O)C3=C(C=C(C=C3O2)O)O)O)O
InChI: InChI=1S/C15H10O6/c16-8-4-11(19)15-12(20)6-13(21-14(15)5-8)7-1-2-9(17)10(18)3-7/h1-6,16-19H
Instrument: Bruker MicrOTOF-Q
Instrument type: LC-ESI-QTOF
Ms type: MS2
Ion mode: NEGATIVE
Ionization: ESI
Collision energy: 15.00
Column name: Acquity CSHC18
Retention time: NA
Base peak: 285.0405
Precursor m/z: 285.0405
Precursor type: [M-H]-
m/z	relative intensity
45.3904	14
46.4082	26
47.0472	12
47.7561	17
49.2415	19
50.6243	15
51.3785	11
52.0655	18
52.8367	22
53.2712	13
54.2242	17
55.1798	19
55.8717	14
56.4121	16
57.3571	17
58.7404	17
60.4039	16
61.1681	15
61.9009	19
63.6376	15
65.5687	24
66.6232	17
68.1061	14
68.7412	17
69.3421	17
71.0473	15
73.3837	20
75.8797	16
77.8718	16
79.3987	14
80.4478	17
81.0039	20
81.4603	15
82.1091	15
82.6565	16
83.7307	14
84.9239	21
85.6584	19
86.4194	20
87.405	14
89.1435	18
90.8072	19
92.4119	18
93.3672	16
95.2802	16
97.1474	16
98.4534	19
99.6047	15
100.9401	20
102.021	26
102.7097	19
103.6558	18
105.0142	17
105.9985	14
106.5055	17
107.1857	20
108.7493	14
109.465	15
111.5138	16
113.697	16
114.1487	26
114.6345	17
116.1819	17
117.6643	20
118.7567	21
120.1054	19
120.9276	23
121.6678	15
123.0153	17
125.2279	16
126.5197	19
127.1326	16
127.6624	26
128.7396	18
130.2935	16
131.4457	17
132.6638	148
133.7095	30
134.6156	13
135.5205	16
136.4651	11
137.1801	14
138.2529	19
139.371	14
140.0488	19
140.9039	19
142.3842	21
144.0932	19
145.5286	11
146.1898	21
146.9319	21
147.8573	22
150.4146	56
152.8974	19
155.0054	17
157.2955	22
159.3584	19
161.3815	17
163.6994	19
164.8519	13
166.6179	21
167.9742	19
170.3609	17
173.6811	22
178.3679	27
182.3388	18
183.7116	18
184.9419	39
187.9459	20
190.4556	10
191.5992	18
192.8335	19
197.0083	106
201.3605	103
206.1534	18
210.0133	13
210.8809	32
212.5458	65
214.1015	59
215.3426	60
217.1534	307
218.0506	173
218.8923	13
221.5675	21
223.0376	260
223.8265	32
225.1969	21
226.3338	49
227.2695	34
229.4242	34
232.2256	20
234.099	14
235.3218	21
236.2661	23
237.5078	14
241.1554	110
246.5794	18
249.7624	17
251.2079	18
251.8157	19
252.7326	13
254.6399	28
257.592	76
259.3575	16
260.1911	22
263.1844	19
265.2635	13
266.2074	25
267.4414	97
268.5305	20
269.1871	16
270.4563	19
271.6892	13
272.4402	17
273.2843	17
274.0556	17
275.5471	16
277.184	20
277.9701	59
279.0575	24
279.9777	12
280.5352	20
281.7543	15
287.4901	999
293.5708	19
295.0902	23
296.1344	12
297.8784	11
298.3659	12
298.8656	16
299.8443	16
300.6169	13
303.4287	11
304.5381	11
305.5049	19
306.1048	20
307.5348	10
308.8972	19
313.7145	13
314.1973	21
327.6393	12
329.133	17
339.4457	19
341.5012	11
342.2083	24
367.3042	12
368.8496	24
380.5272	25
381.3326	16
383.6577	17
388.8811	28
399.4527	22
406.7677	20
409.1514	20
416.1937	16
419.7892	14
425.7008	18
429.6531	16
430.1611	11
439.0821	21
442.7221	19
448.9261	24
457.8882	11
460.5308	16
465.287	28
469.457	17
473.1756	24
476.3138	21
495.3526	18
499.6228	13
512.8594	26
515.6703	11
530.014	12
539.6457	18
543.8577	12
548.7886	15
555.9895	21
569.5291	10
570.5543	11
581.6778	10
587.2031	14
621.6069	12
626.9226	19
633.9779	12
634.72	17
702.8182	19
743.6244	16
760.1987	14
764.5448	20
772.1909	11
803.1012	27
821.3767	12
822.0753	18
838.2993	19
854.5545	15
926.2918	13
