Mass spectrum: 3-SULFINOALANINE; LC-ESI-QTOF; MS2; CE: 40;  [M+H]+
Name: 3-SULFINOALANINE
Class: NA
Formula: C3H7NO4S
Exact mass: 153.0096
SMILES: N[C@@H](CS(=O)=O)C(O)=O
InChI: InChI=1S/C3H7NO4S/c4-2(3(5)6)1-9(7)8/h2,9H,1,4H2,(H,5,6)/t2-/m0/s1
Instrument: Agilent 6530Â Q-TOF LC/MS
Instrument type: LC-ESI-QTOF
Ms type: MS2
Ion mode: POSITIVE
Ionization: ESI
Collision energy: 40
Retention time: 0.200 min
Base peak: 154.01660
Precursor m/z: 154.01660
Precursor type: [M+H]+
m/z	relative intensity
40.5598	52
42.0315	349
42.084	10
42.4077	19
42.5868	10
43.0502	397
43.1017	17
43.841	15
44.0487	161
44.3551	6
45.0356	203
45.0826	10
48.2191	24
49.3974	4
49.4931	41
52.5392	32
52.56	19
53.1859	34
55.0183	999
55.4806	30
56.8021	61
63.9278	54
66.7228	39
66.7481	6
67.0401	26
70.078	10
72.3486	4
73.0225	69
74.022	80
80.7861	10
82.2171	13
85.8502	45
88.0208	37
94.8309	48
94.856	15
95.634	72
106.0636	216
106.1559	2
107.8041	48
109.584	54
109.6263	10
112.8006	65
115.4078	19
130.9555	65
139.4141	10
139.44	8
142.1721	15
142.7717	28
145.9174	15
146.0927	111
149.809	13
