Mass spectrum: Tartaric acid; LC-ESI-QTOF; MS2; CE: 15 / 50;  [M-H]-
Name: Tartaric acid
Class: NA
Formula: C4H6O6
Exact mass: 150.01644
SMILES: C(C(C(=O)O)O)(C(=O)O)O
InChI: InChI=1S/C4H6O6/c5-1(3(7)8)2(6)4(9)10/h1-2,5-6H,(H,7,8)(H,9,10)
Instrument: impact II
Instrument type: LC-ESI-QTOF
Ms type: MS2
Ion mode: NEGATIVE
Ionization: ESI
Collision energy: 15 / 50
Column name: Acquity CSHC18
Retention time: 0.640 min
Base peak: 149.00890
Precursor m/z: 149.00890
Precursor type: [M-H]-
m/z	relative intensity
72.9934	386
87.0088	974
105.0192	137
149.0088	999
