Mass spectrum: Hydroxykynurenine; LC-ESI-ITFT; MS2; CE: 60;  [M-H]-
Name: Hydroxykynurenine
Class: Organic oxygen compounds; Organooxygen compounds; Carbonyl compounds
Formula: C10H12N2O4
Exact mass: 224.07971
SMILES: NC(CC(=O)C1=C(N)C(O)=CC=C1)C(O)=O
InChI: InChI=1S/C10H12N2O4/c11-6(10(15)16)4-8(14)5-2-1-3-7(13)9(5)12/h1-3,6,13H,4,11-12H2,(H,15,16)
Instrument: Thermo Scientific Q-Exactive Focus
Instrument type: LC-ESI-ITFT
Ms type: MS2
Ion mode: NEGATIVE
Ionization: ESI
Collision energy: 60
Column name: Acquity CSHC18
Retention time: 2.026 min
Base peak: 223.07243
Precursor m/z: 223.07243
Precursor type: [M-H]-
m/z	relative intensity
65.002	442
65.0385	171
90.0337	699
91.0177	704
93.0334	603
107.0365	900
108.0443	369
116.0494	460
118.0287	999
131.0365	288
