Mass spectrum: Prostaglandin D1; ESI-TOF; MS2; CE: 0.6458333;  [M+H]+
Name: Prostaglandin D1
Class: NA
Formula: C20H34O5
Exact mass: 354.24062
SMILES: CCCCCC(C=CC1C(C(CC1=O)O)CCCCCCC(=O)O)O
InChI: InChI=1S/C20H34O5/c1-2-3-6-9-15(21)12-13-17-16(18(22)14-19(17)23)10-7-4-5-8-11-20(24)25/h12-13,15-18,21-22H,2-11,14H2,1H3,(H,24,25)
Instrument: waters xevo g2 TOF
Instrument type: ESI-TOF
Ms type: MS2
Ion mode: POSITIVE
Ionization: ESI
Collision energy: 0.6458333
Column name: Acquity CSHC18
Retention time: 3.607 min
Base peak: 355.24862
Precursor m/z: 355.24862
Precursor type: [M+H]+
m/z	relative intensity
81.0693	99
83.0854	43
93.07	26
98.9592	43
105.0689	112
107.0866	113
109.102	5
127.979	5
131.0859	110
133.1015	50
143.0853	44
144.96	5
145.1024	114
157.0979	26
161.1331	49
171.1222	38
173.1313	56
179.0907	5
185.1321	60
186.1004	5
188.0941	5
189.1257	37
197.102	5
219.1368	5
237.1472	5
275.0955	70
275.1983	5
277.2157	5
282.0567	5
283.2053	5
291.0684	92
291.2334	5
301.2162	260
302.2206	5
303.2263	5
304.3002	5
309.0784	5
319.2264	5
320.2291	5
337.238	5
338.2415	5
357.1742	110
373.1448	88
375.1839	60
377.2301	999
378.2343	207
390.1537	5
391.1568	111
392.158	5
394.196	22
409.1666	5
411.1693	5
413.1644	5
422.173	5
423.1828	5
440.1837	5
732.4782	5
763.3981	5
