Mass spectrum: 4,5-Dihydroorotic acid; ESI-TOF; MS2; CE: 6.0000000;  [M+H]+
Name: 4,5-Dihydroorotic acid
Class: NA
Formula: C5H6N2O4
Exact mass: 158.03276
SMILES: OC(=O)C1CC(=O)NC(=O)N1
InChI: InChI=1S/C5H6N2O4/c8-3-1-2(4(9)10)6-5(11)7-3/h2H,1H2,(H,9,10)(H2,6,7,8,11)
Instrument: waters xevo g2 TOF
Instrument type: ESI-TOF
Ms type: MS2
Ion mode: POSITIVE
Ionization: ESI
Collision energy: 6.0000000
Column name: Acquity CSHC18
Retention time: 0.631 min
Base peak: 159.04076
Precursor m/z: 159.04076
Precursor type: [M+H]+
m/z	relative intensity
72.9373	2
87.0563	39
88.0401	51
96.9616	95
100.9636	3
108.9634	1
113.0355	26
116.0354	21
117.9798	8
124.957	7
131.0457	42
131.9514	24
132.9629	1
145.9555	39
159.041	999
