Mass spectrum: Trigonelline; LC-ESI-QTOF; MS2; CE: 15.00;  [2M+H]+
Name: Trigonelline
Class: NA
Formula: C7H7NO2
Exact mass: 137.0477
SMILES: C[N+]1=CC=CC(=C1)C(=O)[O-]
InChI: InChI=1S/C7H7NO2/c1-8-4-2-3-6(5-8)7(9)10/h2-5H,1H3
Instrument: Bruker MicrOTOF-Q
Instrument type: LC-ESI-QTOF
Ms type: MS2
Ion mode: POSITIVE
Ionization: ESI
Collision energy: 15.00
Column name: Acquity CSHC18
Retention time: NA
Base peak: 275.1026
Precursor m/z: 275.1026
Precursor type: [2M+H]+
m/z	relative intensity
79.03	6
93.07	6
94.07	27
135.17	6
138.05	999
139.06	49
144.08	6
152.08	26
170.09	8
172.11	8
187.12	17
205.93	6
291.9	8
454.87	6
