Mass spectrum: (-)-β-Pinene; APCI-ITFT; MS2; CE: 35 CID;  [M+H]+
Name: (-)-β-Pinene
Class: NA
Formula: C10H16
Exact mass: 136.12520
SMILES: CC1(C2CCC(=C)C1C2)C
InChI: InChI=1S/C10H16/c1-7-4-5-8-6-9(7)10(8,2)3/h8-9H,1,4-6H2,2-3H3
Instrument: Orbitrap Elite
Instrument type: APCI-ITFT
Ms type: MS2
Ion mode: POSITIVE
Ionization: APCI
Collision energy: 35 CID
Column name: Acquity CSHC18
Retention time: 0.097 min
Base peak: 137.13230
Precursor m/z: 137.13230
Precursor type: [M+H]+
Precursor intensity: 122893300
m/z	relative intensity
77.0386	2
79.0542	30
81.0697	574
91.0543	1
93.0697	8
95.0808	6
95.0856	606
105.0448	1
107.0858	1
108.0933	1
109.101	49
121.1006	1
122.1089	1
135.1167	3
136.1205	1
137.1244	9
137.1327	999
