Mass spectrum: Cyanidin 3-O-rutinoside; LC-ESI-QTOF; MS2; CE: 50eV;  [M]+
Name: Cyanidin 3-O-rutinoside
Class: Anthocyanin
Formula: [C27H31O15]+
Exact mass: 595.1657
SMILES: CC1C(C(C(C(O1)OCC2C(C(C(C(O2)OC3=CC4=C(C=C(C=C4[O+]=C3C5=CC(=C(C=C5)O)O)O)O)O)O)O)O)O)O
InChI: InChI=1S/C27H30O15/c1-9-19(32)21(34)23(36)26(39-9)38-8-18-20(33)22(35)24(37)27(42-18)41-17-7-12-14(30)5-11(28)6-16(12)40-25(17)10-2-3-13(29)15(31)4-10/h2-7,9,18-24,26-27,32-37H,8H2,1H3,(H3-,28,29,30,31)/p+1
Instrument: TIMS-TOF Pro, Bruker Daltonik; Elute UHPLC System, Bruker Daltonik
Instrument type: LC-ESI-QTOF
Ms type: MS2
Ion mode: POSITIVE
Ionization: ESI
Collision energy: 50eV
Column name: Acquity CSHC18
Retention time: 3.563 min
Base peak: 595.1591
Precursor m/z: 595.1591
Precursor type: [M]+
Precursor intensity: 11465.63
m/z	relative intensity
195.7611	89
261.8496	76
271.0562	305
286.9985	153
287.0335	402
287.9077	101
288.0585	719
289.0557	120
291.8056	43
435.9787	123
595.163	999
