Mass spectrum: 1-Methylindole-3-carboxylic acid; LC-ESI-QTOF; MS2; CE: 35.00;  [M+H]+
Name: 1-Methylindole-3-carboxylic acid
Class: NA
Formula: C10H9NO2
Exact mass: 175.0633
SMILES: CN1C=C(C2=CC=CC=C21)C(=O)O
InChI: InChI=1S/C10H9NO2/c1-11-6-8(10(12)13)7-4-2-3-5-9(7)11/h2-6H,1H3,(H,12,13)
Instrument: Bruker MicrOTOF-Q
Instrument type: LC-ESI-QTOF
Ms type: MS2
Ion mode: POSITIVE
Ionization: ESI
Collision energy: 35.00
Column name: Acquity CSHC18
Retention time: NA
Base peak: 176.0709
Precursor m/z: 176.0709
Precursor type: [M+H]+
m/z	relative intensity
114.0317	6
115.0487	13
116.0452	22
117.0551	303
118.0593	14
128.0489	90
129.0509	9
130.0635	999
131.0701	232
132.0762	24
143.0349	11
146.0667	12
158.0618	18
