Mass spectrum: Umbelliferone; LC-ESI-ITFT; MS2; CE: 10;  [M-H]-
Name: Umbelliferone
Class: Phenylpropanoids and polyketides; Coumarins and derivatives; Hydroxycoumarins
Formula: C9H6O3
Exact mass: 162.03169
SMILES: OC1=CC2=C(C=C1)C=CC(=O)O2
InChI: InChI=1S/C9H6O3/c10-7-3-1-6-2-4-9(11)12-8(6)5-7/h1-5,10H
Instrument: Thermo Scientific Q-Exactive Focus
Instrument type: LC-ESI-ITFT
Ms type: MS2
Ion mode: NEGATIVE
Ionization: ESI
Collision energy: 10
Column name: Acquity CSHC18
Retention time: 0.364 min
Base peak: 161.02441
Precursor m/z: 161.02441
Precursor type: [M-H]-
m/z	relative intensity
95.0489	1
113.6896	1
117.0334	6
123.044	3
133.0283	35
161.0234	999
166.1266	1
175.9234	1
