Mass spectrum: N,N-DIMETHYL-1,4-PHENYLENEDIAMINE; LC-ESI-QTOF; MS2; CE: 10;  [M+H]+
Name: N,N-DIMETHYL-1,4-PHENYLENEDIAMINE
Class: NA
Formula: C8H12N2
Exact mass: 136.10005
SMILES: CN(C)C1=CC=C(C=C1)N
InChI: InChI=1S/C8H12N2/c1-10(2)8-5-3-7(9)4-6-8/h3-6H,9H2,1-2H3
Instrument: Agilent 6530Â Q-TOF LC/MS
Instrument type: LC-ESI-QTOF
Ms type: MS2
Ion mode: POSITIVE
Ionization: ESI
Collision energy: 10
Column name: NA
Retention time: 0.200 min
Base peak: 137.10399
Precursor m/z: 137.10399
Precursor type: [M+H]+
Precursor intensity: 188.5
m/z	relative intensity
53.0409	19
63.0253	20
80.0608	20
92.0475	20
93.062	21
94.0737	22
95.0741	24
106.0589	25
107.0914	27
107.3482	31
107.7209	31
120.0715	35
121.1036	43
121.5044	45
121.9091	46
122.5901	47
123.416	91
123.6236	94
135.0965	154
136.1143	248
137.1631	531
137.6072	600
138.0603	999
