Mass spectrum: L-2-Hydroxyglutaric acid; LC-ESI-ITFT; MS2; CE: 30;  [M-H]-
Name: L-2-Hydroxyglutaric acid
Class: Lipids and lipid-like molecules; Fatty Acyls; Fatty acids and conjugates
Formula: C5H8O5
Exact mass: 148.03717
SMILES: O[C@@H](CCC(O)=O)C(O)=O
InChI: InChI=1S/C5H8O5/c6-3(5(9)10)1-2-4(7)8/h3,6H,1-2H2,(H,7,8)(H,9,10)/t3-/m0/s1
Instrument: Thermo Scientific Q-Exactive Focus
Instrument type: LC-ESI-ITFT
Ms type: MS2
Ion mode: NEGATIVE
Ionization: ESI
Collision energy: 30
Column name: Acquity CSHC18
Retention time: 0.927 min
Base peak: 147.02991
Precursor m/z: 147.02991
Precursor type: [M-H]-
m/z	relative intensity
54.872	19
57.0334	999
61.9872	133
72.2094	17
85.0282	129
96.03	21
101.0231	64
126.9193	17
133.1013	19
152.2159	18
