Mass spectrum: 1,2-dipetroselenoyl-sn-glycero-3-phosphocholine; ESI-TOF; MS2; CE: 0.6458333;  [M+H]+
Name: 1,2-dipetroselenoyl-sn-glycero-3-phosphocholine
Class: NA
Formula: C44H84NO8P
Exact mass: 785.59346
SMILES: [H]C(=C([H])C([H])([H])C([H])([H])C([H])([H])C([H])([H])C([H])([H])C([H])([H])C([H])([H])C([H])([H])C([H])([H])C([H])([H])C([H])([H])[H])C([H])([H])C([H])([H])C([H])([H])C([H])([H])C(=O)OC([H])([H])C([H])(OC(=O)C([H])([H])C([H])([H])C([H])([H])C([H])([H])C([H])=C([H])C([H])([H])C([H])([H])C([H])([H])C([H])([H])C([H])([H])C([H])([H])C([H])([H])C([H])([H])C([H])([H])C([H])([H])C([H])([H])[H])C([H])([H])OP(=O)([O-])OC([H])([H])C([H])([H])[N+](C([H])([H])[H])(C([H])([H])[H])C([H])([H])[H]
InChI: InChI=1S/C44H84NO8P/c1-6-8-10-12-14-16-18-20-22-24-26-28-30-32-34-36-43(46)50-40-42(41-52-54(48,49)51-39-38-45(3,4)5)53-44(47)37-35-33-31-29-27-25-23-21-19-17-15-13-11-9-7-2/h26-29,42H,6-25,30-41H2,1-5H3
Instrument: waters xevo g2 TOF
Instrument type: ESI-TOF
Ms type: MS2
Ion mode: POSITIVE
Ionization: ESI
Collision energy: 0.6458333
Column name: Acquity CSHC18
Retention time: 11.470 min
Base peak: 786.60146
Precursor m/z: 786.60146
Precursor type: [M+H]+
m/z	relative intensity
86.097	10
97.9691	3
98.9621	2
99.9693	1
125	5
135.1173	1
151.0213	1
163.0161	2
181.0264	7
184.0731	999
185.077	61
186.0779	9
197.0236	1
321.2102	67
322.2138	19
337.1834	1
339.2912	6
351.2042	3
351.7029	1
504.3451	130
505.3482	26
506.3521	5
522.3564	4
603.5351	17
604.5385	7
605.543	1
625.5169	6
626.5189	2
664.9474	6
749.5104	9
750.5128	4
786.6001	748
787.6038	389
