Mass spectrum: Quercetagetin 6-O-methyl ether; LC-ESI-QTOF; MS2; CE: 50eV;  [M-H]-
Name: Quercetagetin 6-O-methyl ether
Class: Flavonol
Formula: C16H12O8
Exact mass: 332.0532
SMILES: COC1=C(C2=C(C=C1O)OC(=C(C2=O)O)C3=CC(=C(C=C3)O)O)O
InChI: InChI=1S/C16H12O8/c1-23-16-9(19)5-10-11(13(16)21)12(20)14(22)15(24-10)6-2-3-7(17)8(18)4-6/h2-5,17-19,21-22H,1H3
Instrument: TIMS-TOF Pro, Bruker Daltonik; Elute UHPLC System, Bruker Daltonik
Instrument type: LC-ESI-QTOF
Ms type: MS2
Ion mode: NEGATIVE
Ionization: ESI
Collision energy: 50eV
Column name: Acquity CSHC18
Retention time: 6.762 min
Base peak: 331.0403
Precursor m/z: 331.0403
Precursor type: [M-H]-
Precursor intensity: 320792.1
m/z	relative intensity
21.6393	2
24.4632	2
30.4838	3
35.2461	2
41.0035	6
43.9096	1
49.3178	2
51.0231	5
53.0372	3
58.7332	2
61.144	1
63.7643	3
65.0016	32
65.9368	3
66.0098	56
67.0179	18
67.9934	3
68.9969	11
70.0011	4
72.5327	3
76.2216	2
82.0043	186
82.1386	2
82.4117	2
83.0082	11
84.9909	1
90.4408	2
93.0322	35
94.0035	17
95.0121	23
96.0229	4
96.991	4
97.9968	2
104.8105	3
107.0108	9
108.0195	9
108.9918	3
110.172	2
110.2834	2
110.5015	2
111.0077	155
111.1656	1
111.44	1
112.0084	5
115.0542	5
116.9937	2
117.8685	1
120.0179	5
121.0271	82
121.9987	22
122.4868	2
123.0074	49
124.0097	6
124.8275	2
126.9877	2
132.0187	3
136.016	2
136.985	18
137.9907	25
139.002	227
139.1842	1
140.0039	7
141.3748	2
145.0257	3
146.0357	8
148.0125	11
149.0232	6
150.9988	4
155.0931	3
156.4785	2
157.8979	2
160.9778	3
162.4395	2
163.3592	3
164.5099	4
165.9875	174
166.211	1
166.6463	2
166.9966	14
167.6533	2
168.0026	2
169.4855	2
172.0135	3
174.0856	2
176.2643	2
177.9892	2
180.0037	3
181.0121	60
181.4366	3
182.0148	7
183.2229	2
186.0122	1
188.0089	4
189.0177	3
193.9815	11
194.6123	2
198.03	4
200.8825	4
203.0291	3
206.9934	3
209.0058	72
210.0054	2
215.6987	2
227.0309	4
232.0282	2
244.0395	2
255.0278	3
259.0218	4
270.0096	4
271.0183	6
272.0264	8
287.0167	6
288.0219	7
303.0509	2
315.803	1
315.9291	2
316.0188	969
316.1842	2
316.323	3
316.4478	2
316.5151	5
316.7003	4
316.7971	2
317.0202	103
317.0848	2
317.2111	2
317.2954	2
317.4527	2
317.7477	1
318.0162	6
330.8367	1
330.9543	2
331.0403	999
331.2067	2
331.333	3
331.422	3
