Mass spectrum: 2-Oxoadipic acid; LC-ESI-QTOF; MS2; CE: -10, -35, -60V;  [M-H]-
Name: 2-Oxoadipic acid
Class: NA
Formula: C6H8O5
Exact mass: 160.0372
SMILES: C(CC(=O)C(=O)O)CC(=O)O
InChI: InChI=1S/C6H8O5/c7-4(6(10)11)2-1-3-5(8)9/h1-3H2,(H,8,9)(H,10,11)
Instrument: TripleToF 5600; Sciex
Instrument type: LC-ESI-QTOF
Ms type: MS2
Ion mode: NEGATIVE
Ionization: ESI
Collision energy: -10, -35, -60V
Column name: Acquity CSHC18
Retention time: 10.306 min
Base peak: 159.0310
Precursor m/z: 159.0310
Precursor type: [M-H]-
Precursor intensity: 355302.2
m/z	relative intensity
115.04	244
158.5343	14
159.0306	999
