Mass spectrum: tetranor-PGEM; ESI-TOF; MS2; CE: 0.6458333;  [M+H]+
Name: tetranor-PGEM
Class: NA
Formula: C16H24O7
Exact mass: 328.15220
SMILES: O[C@H]1[C@H](CCC(CCCCC(O)=O)=O)[C@@H](CCC(O)=O)C(C1)=O
InChI: InChI=1S/C16H24O7/c17-10(3-1-2-4-15(20)21)5-6-11-12(7-8-16(22)23)14(19)9-13(11)18/h11-13,18H,1-9H2,(H,20,21)(H,22,23)/t11-,12-,13-/m1/s1
Instrument: waters xevo g2 TOF
Instrument type: ESI-TOF
Ms type: MS2
Ion mode: POSITIVE
Ionization: ESI
Collision energy: 0.6458333
Column name: Acquity CSHC18
Retention time: 1.913 min
Base peak: 329.16020
Precursor m/z: 329.16020
Precursor type: [M+H]+
m/z	relative intensity
91.0537	50
111.0446	49
113.965	4
121.0657	97
129.07	54
131.9518	4
145.1008	39
149.0606	101
163.0761	197
165.0905	4
167.0855	43
175.0528	4
175.5546	4
185.098	26
191.0707	53
203.1455	110
211.1128	215
229.123	494
233.1157	58
247.1356	68
257.117	119
275.1281	94
276.1317	4
293.1391	4
294.1408	4
295.1452	4
311.1492	4
312.1552	4
318.0558	24
336.0745	32
347.0579	241
348.1356	4
351.1413	999
352.1451	4
364.0623	159
365.0685	203
366.0712	4
367.1065	153
378.0695	4
380.0737	4
382.0706	63
383.0794	282
384.0818	48
385.0763	4
386.087	4
387.0786	28
481.2617	12
693.2138	4
695.2602	47
696.2638	4
710.2205	4
711.2245	4
712.2391	4
713.2264	4
714.2269	4
