Mass spectrum: (+)-Fenchol; APCI-ITFT; MS2; CE: 35 CID;  [M+H-H2O]+
Name: (+)-Fenchol
Class: NA
Formula: C10H18O
Exact mass: 154.13577
SMILES: CC1(C2CCC(C2)(C1O)C)C
InChI: InChI=1S/C10H18O/c1-9(2)7-4-5-10(3,6-7)8(9)11/h7-8,11H,4-6H2,1-3H3
Instrument: Orbitrap Elite
Instrument type: APCI-ITFT
Ms type: MS2
Ion mode: POSITIVE
Ionization: APCI
Collision energy: 35 CID
Column name: Acquity CSHC18
Retention time: 0.098 min
Base peak: 137.13200
Precursor m/z: 137.13200
Precursor type: [M+H-H2O]+
Precursor intensity: 657851500
m/z	relative intensity
77.0383	1
79.0539	16
81.0697	349
81.0778	1
83.0854	1
91.0542	2
93.0696	9
95.0852	643
105.0443	1
107.0853	2
108.089	1
108.0933	1
109.0649	1
109.101	54
122.1089	1
135.1168	3
136.1199	2
137.132	999
137.1498	2
