Mass spectrum: Isorhamnetin 3-(6''-malonylglucoside); LC-ESI-QTOF; MS2; CE: 20-40eV;  [M+H]+
Name: Isorhamnetin 3-(6''-malonylglucoside)
Class: flavonoid
Formula: C25H24O15
Exact mass: 564.1115
SMILES: COC=1C=C(C=CC1O)C2=C(C(C3=C(C=C(C=C3O2)O)O)=O)OC4(C(C(C(C(COC(CC(=O)O)=O)(O4)[H])(O)[H])(O)[H])(O)[H])[H]
InChI: InChI=1S/C25H24O15/c1-36-13-4-9(2-3-11(13)27)23-24(20(33)18-12(28)5-10(26)6-14(18)38-23)40-25-22(35)21(34)19(32)15(39-25)8-37-17(31)7-16(29)30/h2-6,15,19,21-22,25-28,32,34-35H,7-8H2,1H3,(H,29,30)
Instrument: Impact II, Bruker; Dionex 3000, Thermo Scientific
Instrument type: LC-ESI-QTOF
Ms type: MS2
Ion mode: POSITIVE
Ionization: ESI
Collision energy: 20-40eV
Column name: Acquity CSHC18
Retention time: 6.283 min
Base peak: 565.1177
Precursor m/z: 565.1177
Precursor type: [M+H]+
Precursor intensity: 771.5
m/z	relative intensity
151.0936	138
317.0645	999
318.0644	136
