Mass spectrum: 7-Methoxyquercetin; LC-ESI-QTOF; MS2; CE: 50eV;  [M-H]-
Name: 7-Methoxyquercetin
Class: Flavonol
Formula: C16H12O7
Exact mass: 316.0583
SMILES: COC1=CC(=C2C(=C1)OC(=C(C2=O)O)C3=CC(=C(C=C3)O)O)O
InChI: InChI=1S/C16H12O7/c1-22-8-5-11(19)13-12(6-8)23-16(15(21)14(13)20)7-2-3-9(17)10(18)4-7/h2-6,17-19,21H,1H3
Instrument: TIMS-TOF Pro, Bruker Daltonik; Elute UHPLC System, Bruker Daltonik
Instrument type: LC-ESI-QTOF
Ms type: MS2
Ion mode: NEGATIVE
Ionization: ESI
Collision energy: 50eV
Column name: Acquity CSHC18
Retention time: 8.217 min
Base peak: 315.0468
Precursor m/z: 315.0468
Precursor type: [M-H]-
Precursor intensity: 110627.5
m/z	relative intensity
33.0688	6
35.7411	12
41.0025	13
51.0242	5
55.1371	5
61.0072	8
63.0224	44
65.0029	302
65.2357	4
66.0046	15
71.1096	5
72.8298	4
75.816	4
78.0091	5
83.0125	27
84.0906	4
87.6334	5
89.0025	207
90.0049	18
92.0251	6
93.0337	315
93.3015	7
93.3945	5
93.5438	5
94.0034	37
95.012	48
96.0152	11
97.0283	309
97.4636	9
98.0311	6
106.0035	14
107.0124	39
108.0195	63
109.028	66
110.7685	8
118.0362	8
120.0196	28
121.0036	272
121.2735	6
121.5219	7
121.9986	41
123.0353	5
124.0149	34
135.0064	26
136.0141	22
137.0237	18
138.4096	9
140.5604	4
147.0071	18
148.0163	10
149.0213	41
149.9929	72
151.0026	24
151.7981	9
152.109	8
154.7123	5
156.3779	6
160.2144	6
161.0277	5
163.0006	31
164.0086	28
165.0158	697
165.2548	5
166.0199	107
169.028	7
171.0532	6
174.0252	13
178.2142	6
183.0414	18
186.0014	6
192.01	8
193.012	167
194.0144	18
197.0238	5
199.0385	8
205.0131	7
207.025	9
226.9928	9
228.0392	20
242.0557	5
243.0625	9
244.0296	6
256.0284	6
257.041	4
259.0572	22
269.0361	7
271.0182	5
272.0289	19
274.0324	4
287.0512	93
288.0539	11
289.0583	5
298.0431	4
300.0226	294
301.0257	27
306.6295	7
314.7739	7
315.0174	999
315.3211	8
315.4639	4
