Mass spectrum: 3,4-Dihydroxycinnamic acid; LC-ESI-QTOF; MS2; CE: 15.00;  [M-H]-
Name: 3,4-Dihydroxycinnamic acid
Class: NA
Formula: C9H8O4
Exact mass: 180.0423
SMILES: C1=CC(=C(C=C1C=CC(=O)O)O)O
InChI: InChI=1S/C9H8O4/c10-7-3-1-6(5-8(7)11)2-4-9(12)13/h1-5,10-11H,(H,12,13)
Instrument: Bruker MicrOTOF-Q
Instrument type: LC-ESI-QTOF
Ms type: MS2
Ion mode: NEGATIVE
Ionization: ESI
Collision energy: 15.00
Column name: Acquity CSHC18
Retention time: NA
Base peak: 179.0350
Precursor m/z: 179.0350
Precursor type: [M-H]-
m/z	relative intensity
46.8465	108
47.3421	53
47.9209	80
49.2758	64
50.0675	78
50.8998	99
52.63	93
54.3909	85
55.8943	126
58.076	117
59.5938	72
63.1917	78
63.7135	57
64.5476	69
66.0088	89
68.6648	89
74.3905	89
77.5945	48
78.5045	46
81.0442	76
82.7695	69
84.9762	77
86.5134	46
87.9012	66
89.3847	69
90.9924	85
91.8106	70
96.6483	48
97.9182	76
99.2269	99
101.5373	96
102.7504	46
104.264	85
106.0103	65
106.9206	422
108.0209	235
109.0251	96
110.6861	96
111.3735	91
116.8741	221
118.8434	80
121.9625	122
123.6414	85
126.1907	71
126.9081	73
128.9464	62
131.1161	46
134.421	999
136.0126	315
136.4639	64
137.0172	122
139.1692	85
139.8644	57
140.2917	73
149.4158	71
159.8656	49
179.0439	226
181.9286	91
237.3868	80
250.1295	46
263.1786	48
286.6779	46
314.8606	71
351.9266	83
368.9277	76
370.1762	48
401.8037	76
406.9012	55
435.2902	50
532.7771	50
551.1666	78
592.1458	66
661.2126	57
685.7517	103
739.3187	64
757.0272	48
764.9183	80
978.559	101
