Mass spectrum: GLUCOSAMINE 6-SULFATE; LC-ESI-QTOF; MS2; CE: 20;  [M+H]+
Name: GLUCOSAMINE 6-SULFATE
Class: NA
Formula: C6H13NO8S
Exact mass: 259.03619
SMILES: N[C@H]1[C@H](O)O[C@H](COS(O)(=O)=O)[C@@H](O)[C@@H]1O
InChI: InChI=1S/C6H13NO8S/c7-3-5(9)4(8)2(15-6(3)10)1-14-16(11,12)13/h2-6,8-10H,1,7H2,(H,11,12,13)/t2-,3-,4-,5-,6-/m1/s1
Instrument: Agilent 6530Â Q-TOF LC/MS
Instrument type: LC-ESI-QTOF
Ms type: MS2
Ion mode: POSITIVE
Ionization: ESI
Collision energy: 20
Column name: NA
Retention time: 0.200 min
Base peak: 260.04181
Precursor m/z: 260.04181
Precursor type: [M+H]+
Precursor intensity: 117.5
m/z	relative intensity
41.0382	124
44.0526	140
45.0299	140
53.0354	153
56.053	160
57.0312	178
60.0522	185
68.0569	231
70.062	237
72.062	238
84.0535	249
85.031	292
126.0578	394
162.0886	396
166.0158	999
