Mass spectrum: Strictosidine hexoside; ESI-QTOF; MS2; CE: 30 eV;  [M+H]+
Name: Strictosidine hexoside
Class: NA
Formula: C33H44N2O14
Exact mass: 692.2793
SMILES: C=CC1(C(CC2(C3=C(CCN2)C4=CC=CC=C4N3)[H])(C(=COC1(OC5(C(C(C(C(COC6(C(C(C(C(CO)(O6)[H])(O)[H])(O)[H])(O)[H])[H])(O5)[H])(O)[H])(O)[H])(O)[H])[H])[H])C(=O)OC)[H])[H]
InChI: InChI=1S/C33H44N2O14/c1-3-14-17(10-20-23-16(8-9-34-20)15-6-4-5-7-19(15)35-23)18(30(43)44-2)12-45-31(14)49-33-29(42)27(40)25(38)22(48-33)13-46-32-28(41)26(39)24(37)21(11-36)47-32/h3-7,12,14,17,20-22,24-29,31-42H,1,8-11,13H2,2H3
Instrument: Synapt (HDMS 1st gen)
Instrument type: ESI-QTOF
Ms type: MS2
Ion mode: POSITIVE
Ionization: ESI
Collision energy: 30 eV
Column name: Acquity CSHC18
Retention time: 12.341 min
Base peak: 693.2863
Precursor m/z: 693.2863
Precursor type: [M+H]+
Precursor intensity: 1024.74
m/z	relative intensity
76.7991	6
97.0268	65
110.3454	6
114.0542	19
120.0435	6
138.0568	32
144.0793	236
151.0304	6
156.0671	92
160.1704	6
168.0769	6
174.0754	492
175.0677	32
180.0873	6
207.0907	6
210.1139	13
234.1437	13
253.1062	13
262.1172	46
280.137	59
290.114	138
292.1395	6
303.1541	6
313.1534	6
322.1458	394
324.1629	19
334.1488	65
338.1313	26
347.1631	6
426.1597	6
456.1464	6
500.1698	13
502.209	223
507.701	6
514.2116	394
521.9223	6
562.1722	6
640.2207	13
675.2853	999
677.274	105
680.9254	13
692.6965	19
