Mass spectrum: Acetylcysteine; ESI-TOF; MS2; CE: 0.6458333;  [M+H]+
Name: Acetylcysteine
Class: NA
Formula: C5H9NO3S
Exact mass: 163.03031
SMILES: CC(=O)NC(CS)C(O)=O
InChI: InChI=1S/C5H9NO3S/c1-3(7)6-4(2-10)5(8)9/h4,10H,2H2,1H3,(H,6,7)(H,8,9)
Instrument: waters xevo g2 TOF
Instrument type: ESI-TOF
Ms type: MS2
Ion mode: POSITIVE
Ionization: ESI
Collision energy: 0.6458333
Column name: Acquity CSHC18
Retention time: 1.166 min
Base peak: 164.03831
Precursor m/z: 164.03831
Precursor type: [M+H]+
m/z	relative intensity
76.0229	7
96.9617	998
96.9618	903
105.0015	7
113.9647	770
122.0277	7
122.0278	7
124.0079	999
129.9403	216
129.9416	137
131.9635	129
137.9881	7
138.9896	784
142.0184	138
144.9658	440
146.0278	7
146.028	7
164.0381	7
172.9607	547
172.9767	334
173.9683	7
186.0198	7
186.0203	7
201.9875	135
213.9869	7
213.9875	7
217.957	7
217.958	7
219.9562	7
250.9377	7
250.9388	7
365.0147	7
379.9805	7
