Mass spectrum: THEOPHYLLINE; LC-ESI-QFT; MS2; CE: 30eV;  [M+H]+
Name: THEOPHYLLINE
Class: NA
Formula: C7H8N4O2
Exact mass: 180.06473
SMILES: CN1C2=C(NC=N2)C(=O)N(C)C1=O
InChI: InChI=1S/C7H8N4O2/c1-10-5-4(8-3-9-5)6(12)11(2)7(10)13/h3H,1-2H3,(H,8,9)
Instrument: Q-Exactive Orbitrap, Thermo Scientfic; Ultimate 3000 HPLC, Thermo Scientfic
Instrument type: LC-ESI-QFT
Ms type: MS2
Ion mode: POSITIVE
Ionization: ESI
Collision energy: 30eV
Column name: Acquity CSHC18
Retention time: 5.111 min
Base peak: 181.0720
Precursor m/z: 181.0720
Precursor type: [M+H]+
Precursor intensity: 124
m/z	relative intensity
52.5726	3
56.0067	3
57.2372	3
58.1796	3
59.6444	3
63.4976	3
65.5004	3
67.3101	3
68.3186	3
69.0454	34
78.7757	4
95.1879	3
95.7115	3
96.0562	71
110.0716	3
119.3313	3
124.051	999
125.0544	18
137.0825	50
142.0614	34
146.5874	3
148.3019	4
162.6086	4
174.3013	4
182.0692	25
182.0759	172
