Mass spectrum: D-Glutamine; ESI-TOF; MS2; CE: 0.6458333;  [M+H]+
Name: D-Glutamine
Class: NA
Formula: C5H10N2O3
Exact mass: 146.06914
SMILES: NC(CCC(N)=O)C(O)=O
InChI: InChI=1S/C5H10N2O3/c6-3(5(9)10)1-2-4(7)8/h3H,1-2,6H2,(H2,7,8)(H,9,10)
Instrument: waters xevo g2 TOF
Instrument type: ESI-TOF
Ms type: MS2
Ion mode: POSITIVE
Ionization: ESI
Collision energy: 0.6458333
Column name: Acquity CSHC18
Retention time: 0.526 min
Base peak: 147.07714
Precursor m/z: 147.07714
Precursor type: [M+H]+
m/z	relative intensity
56.943	8
84.0452	999
85.0482	48
98.9629	80
99.9696	85
102.0558	21
111.9683	5
124.007	18
128.0041	50
128.9884	10
130.0502	199
147.0169	33
155.9983	61
157.0048	27
169.998	4
170.8666	6
185.0237	18
215.0371	6
246.8622	9
256.0625	19
259.0245	26
293.1455	7
302.0672	10
318.7913	4
346.0584	14
547.0552	7
692.111	4
