Mass spectrum: Arachidonoylthio-PC; LC-ESI-QTOF; MS2; CE: 20-40eV;  [M+H]+
Name: Arachidonoylthio-PC
Class: Phosphatidylcholine lipid
Formula: C44H82NO6PS
Exact mass: 783.5600
SMILES: CCCCCC(=C(CC(=C(CC(=C(CC(=C(CCCC(=O)SC(COCCCCCCCCCCCCCCCC)(COP(=O)([O-])OCC[N+](C)(C)C)[H])[H])[H])[H])[H])[H])[H])[H])[H]
InChI: InChI=1S/C44H82NO6PS/c1-6-8-10-12-14-16-18-20-22-23-24-25-27-29-31-33-35-37-44(46)53-43(42-51-52(47,48)50-40-38-45(3,4)5)41-49-39-36-34-32-30-28-26-21-19-17-15-13-11-9-7-2/h14,16,20,22,24-25,29,31,43H,6-13,15,17-19,21,23,26-28,30,32-42H2,1-5H3
Instrument: Impact II, Bruker; Dionex 3000, Thermo Scientific
Instrument type: LC-ESI-QTOF
Ms type: MS2
Ion mode: POSITIVE
Ionization: ESI
Collision energy: 20-40eV
Column name: Acquity CSHC18
Retention time: 28.651 min
Base peak: 784.5806
Precursor m/z: 784.5806
Precursor type: [M+H]+
Precursor intensity: 245226.3
m/z	relative intensity
184.047	4
184.155	999
