Mass spectrum: 2-Nitrophenol; LC-ESI-ITFT; MS2; CE: 60;  [M-H]-
Name: 2-Nitrophenol
Class: NA
Formula: C6H5NO3
Exact mass: 139.02694
SMILES: C1=CC=C(C(=C1)[N+](=O)[O-])O
InChI: InChI=1S/C6H5NO3/c8-6-4-2-1-3-5(6)7(9)10/h1-4,8H
Instrument: Thermo Scientific Q-Exactive Focus
Instrument type: LC-ESI-ITFT
Ms type: MS2
Ion mode: NEGATIVE
Ionization: ESI
Collision energy: 60
Column name: Acquity CSHC18
Retention time: 2.030 min
Base peak: 138.01967
Precursor m/z: 138.01967
Precursor type: [M-H]-
m/z	relative intensity
53.7592	775
60.2305	807
61.7929	852
67.2611	810
76.3413	988
77.2004	931
78.6508	883
89.5617	905
100.195	999
129.9948	875
