Mass spectrum: 1032-65-1; LC-ESI-QTOF; MS2; CE: -10, -35, -60V;  [M-H]-
Name: 1032-65-1
Class: NA
Formula: C9H14N3O7P
Exact mass: 307.0569
SMILES: C1C(C(OC1N2C=CC(=NC2=O)N)COP(=O)(O)O)O
InChI: InChI=1S/C9H14N3O7P/c10-7-1-2-12(9(14)11-7)8-3-5(13)6(19-8)4-18-20(15,16)17/h1-2,5-6,8,13H,3-4H2,(H2,10,11,14)(H2,15,16,17)
Instrument: TripleToF 5600; Sciex
Instrument type: LC-ESI-QTOF
Ms type: MS2
Ion mode: NEGATIVE
Ionization: ESI
Collision energy: -10, -35, -60V
Column name: Acquity CSHC18
Retention time: 6.940 min
Base peak: 306.0510
Precursor m/z: 306.0510
Precursor type: [M-H]-
Precursor intensity: 161539.9
m/z	relative intensity
78.9593	999
96.9703	145
110.0378	56
176.9964	36
194.9946	7
195.0064	121
306.0338	6
306.0511	237
