Mass spectrum: dopamine; LC-ESI-QTOF; MS2; CE: -10, -35, -60V;  [M-H]-
Name: dopamine
Class: NA
Formula: C8H11NO2
Exact mass: 153.0790
SMILES: C1=CC(=C(C=C1CCN)O)O
InChI: InChI=1S/C8H11NO2/c9-4-3-6-1-2-7(10)8(11)5-6/h1-2,5,10-11H,3-4,9H2
Instrument: TripleToF 5600; Sciex
Instrument type: LC-ESI-QTOF
Ms type: MS2
Ion mode: NEGATIVE
Ionization: ESI
Collision energy: -10, -35, -60V
Column name: Acquity CSHC18
Retention time: 0.635 min
Base peak: 152.0724
Precursor m/z: 152.0724
Precursor type: [M-H]-
Precursor intensity: 98554.81
m/z	relative intensity
122.0327	149
122.0405	149
123.0453	16
149.0322	20
152.0631	992
152.0735	999
