Mass spectrum: H-Ile-Phe-OH; LC-ESI-QTOF; MS2; CE: 15.00;  [M+H]+
Name: H-Ile-Phe-OH
Class: NA
Formula: C15H22N2O3
Exact mass: 278.1630
SMILES: CCC(C)C(C(=O)NC(CC1=CC=CC=C1)C(=O)O)N
InChI: InChI=1S/C15H22N2O3/c1-3-10(2)13(16)14(18)17-12(15(19)20)9-11-7-5-4-6-8-11/h4-8,10,12-13H,3,9,16H2,1-2H3,(H,17,18)(H,19,20)
Instrument: Bruker MicrOTOF-Q
Instrument type: LC-ESI-QTOF
Ms type: MS2
Ion mode: POSITIVE
Ionization: ESI
Collision energy: 15.00
Column name: Acquity CSHC18
Retention time: NA
Base peak: 279.1703
Precursor m/z: 279.1703
Precursor type: [M+H]+
m/z	relative intensity
165.24	5
166.09	999
166.5	6
166.61	4
167.09	124
167.15	6
186.42	5
192.07	33
198.13	5
199.12	7
206.13	5
216.13	13
217.17	12
218.19	5
233.16	258
233.24	21
234.17	30
234.22	12
236.95	5
261.17	22
262.16	26
268.42	5
279.17	659
279.45	6
280.17	99
326.36	8
409.91	6
