Mass spectrum: Quercetin 3-rhamnoside; LC-ESI-QFT; MS2; CE: NCE_15_30_71;  [M-H]-
Name: Quercetin 3-rhamnoside
Class: NA
Formula: C21H20O11
Exact mass: 448.1006
SMILES: CC1C(C(C(C(O1)OC2=C(OC3=CC(=CC(=C3C2=O)O)O)C4=CC(=C(C=C4)O)O)O)O)O
InChI: InChI=1S/C21H20O11/c1-7-15(26)17(28)18(29)21(30-7)32-20-16(27)14-12(25)5-9(22)6-13(14)31-19(20)8-2-3-10(23)11(24)4-8/h2-7,15,17-18,21-26,28-29H,1H3
Instrument: Thermo_Qexactive_Plus
Instrument type: LC-ESI-QFT
Ms type: MS2
Ion mode: NEGATIVE
Ionization: ESI
Collision energy: NCE_15_30_71
Column name: Acquity CSHC18
Retention time: 5.049 min
Base peak: 447.0939
Precursor m/z: 447.0939
Precursor type: [M-H]-
Precursor intensity: 870096800
m/z	relative intensity
70.0521	7
82.4421	7
95.1541	7
115.0512	7
121.0279	7
125.023	8
151.0028	8
152.0058	8
163.0021	8
178.9979	8
180.0004	9
192.004	10
219.1142	10
227.0353	10
229.0506	11
232.5577	13
243.0288	13
245.0465	19
255.0308	20
256.0342	21
257.0456	24
271.0263	24
272.0299	25
273.0402	77
273.2019	79
283.0247	86
300.027	91
301.0352	105
302.0433	827
422.8324	944
447.0936	999
