Mass spectrum: CAFFEINE; LC-ESI-QTOF; MS2; CE: 20;  [M+H]+
Name: CAFFEINE
Class: NA
Formula: C8H10N4O2
Exact mass: 194.0804
SMILES: CN1C=NC2=C1C(=O)N(C)C(=O)N2C
InChI: InChI=1S/C8H10N4O2/c1-10-4-9-6-5(10)7(13)12(3)8(14)11(6)2/h4H,1-3H3
Instrument: Agilent 6530Â Q-TOF LC/MS
Instrument type: LC-ESI-QTOF
Ms type: MS2
Ion mode: POSITIVE
Ionization: ESI
Collision energy: 20
Column name: NA
Retention time: 0.200 min
Base peak: 195.08879
Precursor m/z: 195.08879
Precursor type: [M+H]+
Precursor intensity: 195.5
m/z	relative intensity
42.0333	40
45.0341	40
56.049	46
69.0437	65
80.0082	73
83.0601	81
108.0511	123
110.0711	156
111.0471	220
123.0441	229
135.0499	267
138.0649	279
195.0846	999
