Mass spectrum: 6-prenyl naringenin; LC-ESI-ITFT; MS2; CE: 0.3;  [M+H]+
Name: 6-prenyl naringenin
Class: flavanones
Formula: C20H20O5
Exact mass: 340.1311
SMILES: CC(=CCC1=C(C2=C(C=C1O)OC(CC2=O)C3=CC=C(C=C3)O)O)C
InChI: InChI=1S/C20H20O5/c1-11(2)3-8-14-15(22)9-18-19(20(14)24)16(23)10-17(25-18)12-4-6-13(21)7-5-12/h3-7,9,17,21-22,24H,8,10H2,1-2H3
Instrument: LTQ-Orbitrap XL hybrid mass spectrometer (Thermo Scientific)
Instrument type: LC-ESI-ITFT
Ms type: MS2
Ion mode: POSITIVE
Ionization: ESI
Collision energy: 0.3
Column name: Acquity CSHC18
Retention time: 13.149 min
Base peak: 341.1398
Precursor m/z: 341.1398
Precursor type: [M+H]+
Precursor intensity: 17731140
m/z	relative intensity
86.8637	1
92.0904	1
93.4569	1
103.1507	2
105.0756	1
108.5763	1
109.3548	1
117.5489	1
131.5714	1
136.6155	1
140.9242	1
148.5328	1
161.1727	2
165.0182	3
167.139	1
167.6753	2
171.3088	1
185.8577	1
194.4994	1
194.515	1
194.5207	1
194.53	1
196.0125	1
196.199	2
213.1876	1
221.082	6
227.1636	1
258.7394	1
269.3113	1
282.1408	1
282.202	1
282.995	3
283.687	2
284.1022	1
284.2696	1
284.3812	2
284.4578	1
284.9898	1
285.0482	5
285.0627	7
285.0773	999
285.0935	6
285.5404	1
285.5598	2
285.7765	2
286.0817	1
286.1972	3
286.4784	5
286.5201	2
286.5286	3
287.1823	6
287.89	1
289.3109	1
323.7917	1
