Mass spectrum: CAMP; LC-ESI-QTOF; MS2; CE: 15 / 50;  [M+H]+
Name: CAMP
Class: NA
Formula: C10H12N5O6P
Exact mass: 329.05252
SMILES: C1=NC(=C2C(=N1)N(C=N2)C3C4C(C(O3)CO)OP(=O)(O4)O)N
InChI: InChI=1S/C10H12N5O6P/c11-8-5-9(13-2-12-8)15(3-14-5)10-7-6(4(1-16)19-10)20-22(17,18)21-7/h2-4,6-7,10,16H,1H2,(H,17,18)(H2,11,12,13)
Instrument: impact II
Instrument type: LC-ESI-QTOF
Ms type: MS2
Ion mode: POSITIVE
Ionization: ESI
Collision energy: 15 / 50
Column name: Acquity CSHC18
Retention time: 0.536 min
Base peak: 330.06040
Precursor m/z: 330.06040
Precursor type: [M+H]+
m/z	relative intensity
119.0351	121
136.0617	824
330.0601	999
330.0824	128
331.0634	157
