Mass spectrum: 3-Methyl-2-oxovaleric acid; LC-ESI-QTOF; MS2; CE: -10, -35, -60V;  [M-H]-
Name: 3-Methyl-2-oxovaleric acid
Class: NA
Formula: C6H10O3
Exact mass: 130.0630
SMILES: CCC(C)C(=O)C(=O)O
InChI: InChI=1S/C6H10O3/c1-3-4(2)5(7)6(8)9/h4H,3H2,1-2H3,(H,8,9)
Instrument: TripleToF 5600; Sciex
Instrument type: LC-ESI-QTOF
Ms type: MS2
Ion mode: NEGATIVE
Ionization: ESI
Collision energy: -10, -35, -60V
Column name: Acquity CSHC18
Retention time: 10.384 min
Base peak: 129.0549
Precursor m/z: 129.0549
Precursor type: [M-H]-
Precursor intensity: 311889.4
m/z	relative intensity
119.0368	11
129.0544	999
