Mass spectrum: Succinic acid; LC-ESI-ITFT; MS2; CE: 100;  [M-H]-
Name: Succinic acid
Class: Organic acids and derivatives; Carboxylic acids and derivatives; Dicarboxylic acids and derivatives
Formula: C4H6O4
Exact mass: 118.02661
SMILES: OC(=O)CCC(O)=O
InChI: InChI=1S/C4H6O4/c5-3(6)1-2-4(7)8/h1-2H2,(H,5,6)(H,7,8)
Instrument: Thermo Scientific Q-Exactive Focus
Instrument type: LC-ESI-ITFT
Ms type: MS2
Ion mode: NEGATIVE
Ionization: ESI
Collision energy: 100
Column name: Acquity CSHC18
Retention time: 2.584 min
Base peak: 117.01933
Precursor m/z: 117.01933
Precursor type: [M-H]-
m/z	relative intensity
52.6958	924
61.6819	866
66.0075	898
81.6618	853
84.1123	923
84.2976	876
106.8085	999
112.2174	918
114.6811	989
121.6959	932
