Mass spectrum: MYOINOSITOL; LC-ESI-QTOF; MS2; CE: 10;  [M-H]-
Name: MYOINOSITOL
Class: NA
Formula: C6H12O6
Exact mass: 180.06339
SMILES: O[C@H]1[C@H](O)[C@@H](O)[C@H](O)[C@H](O)[C@@H]1O
InChI: InChI=1S/C6H12O6/c7-1-2(8)4(10)6(12)5(11)3(1)9/h1-12H/t1-,2-,3-,4+,5-,6-
Instrument: Agilent 6530Â Q-TOF LC/MS
Instrument type: LC-ESI-QTOF
Ms type: MS2
Ion mode: NEGATIVE
Ionization: ESI
Collision energy: 10
Column name: NA
Retention time: 0.200 min
Base peak: 179.05762
Precursor m/z: 179.05762
Precursor type: [M-H]-
Precursor intensity: 117
m/z	relative intensity
41.0106	112
43.0233	120
45.0014	152
55.0218	157
57.037	161
59.0246	171
67.0191	208
71.0206	219
73.0329	242
79.0193	244
83.0088	254
85.0378	258
87.0324	282
97.0299	312
99.017	322
101.0242	348
117.0244	372
125.0225	458
141.0209	490
161.0603	775
179.0806	999
