Mass spectrum: Folic acid; LC-ESI-ITFT; MS2; CE: 100;  [M+H]+
Name: Folic acid
Class: Organic acids and derivatives; Carboxylic acids and derivatives; Amino acids, peptides, and analogues
Formula: C19H19N7O6
Exact mass: 441.13968
SMILES: NC1=NC(=O)C2=NC(CNC3=CC=C(C=C3)C(=O)N[C@@H](CCC(O)=O)C(O)=O)=CN=C2N1
InChI: InChI=1S/C19H19N7O6/c20-19-25-15-14(17(30)26-19)23-11(8-22-15)7-21-10-3-1-9(2-4-10)16(29)24-12(18(31)32)5-6-13(27)28/h1-4,8,12,21H,5-7H2,(H,24,29)(H,27,28)(H,31,32)(H3,20,22,25,26,30)/t12-/m0/s1
Instrument: Thermo Scientific Q-Exactive Focus
Instrument type: LC-ESI-ITFT
Ms type: MS2
Ion mode: POSITIVE
Ionization: ESI
Collision energy: 100
Column name: Acquity CSHC18
Retention time: 2.570 min
Base peak: 442.14697
Precursor m/z: 442.14697
Precursor type: [M+H]+
m/z	relative intensity
54.0344	216
65.0391	427
69.0088	110
79.0296	860
81.0452	999
92.0499	274
106.0403	512
108.0559	174
120.0446	110
124.0507	350
