Mass spectrum: cystathionine; LC-ESI-QTOF; MS2; CE: -10, -35, -60V;  [M-H]-
Name: cystathionine
Class: NA
Formula: C7H14N2O4S
Exact mass: 222.0674
SMILES: C(CSCC(C(=O)O)N)C(C(=O)O)N
InChI: InChI=1S/C7H14N2O4S/c8-4(6(10)11)1-2-14-3-5(9)7(12)13/h4-5H,1-3,8-9H2,(H,10,11)(H,12,13)
Instrument: TripleToF 5600; Sciex
Instrument type: LC-ESI-QTOF
Ms type: MS2
Ion mode: NEGATIVE
Ionization: ESI
Collision energy: -10, -35, -60V
Column name: Acquity CSHC18
Retention time: 0.674 min
Base peak: 221.0619
Precursor m/z: 221.0619
Precursor type: [M-H]-
Precursor intensity: 101963.9
m/z	relative intensity
74.0076	5
120.0128	91
134.0203	185
134.0252	185
136.9384	14
140.0331	39
154.9485	12
172.9533	24
221.0593	999
