Mass spectrum: DETHIOBIOTIN; LC-ESI-QTOF; MS2; CE: 20;  [M-H]-
Name: DETHIOBIOTIN
Class: NA
Formula: C10H18N2O3
Exact mass: 214.13174
SMILES: C[C@@H]1NC(=O)N[C@@H]1CCCCCC(O)=O
InChI: InChI=1S/C10H18N2O3/c1-7-8(12-10(15)11-7)5-3-2-4-6-9(13)14/h7-8H,2-6H2,1H3,(H,13,14)(H2,11,12,15)/t7-,8+/m0/s1
Instrument: Agilent 6530Â Q-TOF LC/MS
Instrument type: LC-ESI-QTOF
Ms type: MS2
Ion mode: NEGATIVE
Ionization: ESI
Collision energy: 20
Column name: NA
Retention time: 0.200 min
Base peak: 213.12407
Precursor m/z: 213.12407
Precursor type: [M-H]-
Precursor intensity: 189
m/z	relative intensity
42.016	147
96.0815	164
169.1333	280
170.1229	304
213.1316	999
