Mass spectrum: ADENOSINE 3',5'-DIPHOSPHATE; LC-ESI-QFT; MS2; CE: 30eV;  [M-H]-
Name: ADENOSINE 3',5'-DIPHOSPHATE
Class: NA
Formula: C10H15N5O10P2
Exact mass: 427.02941
SMILES: NC1=NC=NC2=C1N=CN2[C@@H]1O[C@H](COP(O)(O)=O)[C@@H](OP(O)(O)=O)[C@H]1O
InChI: InChI=1S/C10H15N5O10P2/c11-8-5-9(13-2-12-8)15(3-14-5)10-6(16)7(25-27(20,21)22)4(24-10)1-23-26(17,18)19/h2-4,6-7,10,16H,1H2,(H2,11,12,13)(H2,17,18,19)(H2,20,21,22)/t4-,6-,7-,10-/m1/s1
Instrument: Q-Exactive Orbitrap, Thermo Scientfic; Ultimate 3000 HPLC, Thermo Scientfic
Instrument type: LC-ESI-QFT
Ms type: MS2
Ion mode: NEGATIVE
Ionization: ESI
Collision energy: 30eV
Column name: Acquity CSHC18
Retention time: 0.710 min
Base peak: 426.0221
Precursor m/z: 426.0221
Precursor type: [M-H]-
Precursor intensity: 127
m/z	relative intensity
52.2172	60
59.5903	58
62.9905	47
66.5861	47
67.0102	48
70.0635	50
78.9575	516
91.9999	49
103.1631	59
104.5562	56
107.2841	66
110.6629	54
115.555	52
117.5611	60
127.5427	56
127.9694	60
134.0457	999
146.5019	58
158.9241	767
174.0899	81
195.1764	63
215.6629	61
247.4487	59
250.1739	72
263.0727	65
272.9561	94
293.7058	68
329.0489	71
354.8032	63
