Mass spectrum: Uracil; LC-ESI-QTOF; MS2; CE: 15 / 50;  [M-H]-
Name: Uracil
Class: NA
Formula: C4H4N2O2
Exact mass: 112.02728
SMILES: C1=CNC(=O)NC1=O
InChI: InChI=1S/C4H4N2O2/c7-3-1-2-5-4(8)6-3/h1-2H,(H2,5,6,7,8)
Instrument: impact II
Instrument type: LC-ESI-QTOF
Ms type: MS2
Ion mode: NEGATIVE
Ionization: ESI
Collision energy: 15 / 50
Column name: Acquity CSHC18
Retention time: 0.718 min
Base peak: 111.01980
Precursor m/z: 111.01980
Precursor type: [M-H]-
m/z	relative intensity
111.0198	999
