Mass spectrum: Serotonin; LC-ESI-ITFT; MS2; CE: 10;  [M+H]+
Name: Serotonin
Class: Organoheterocyclic compounds; Indoles and derivatives; Tryptamines and derivatives
Formula: C10H12N2O
Exact mass: 176.09496
SMILES: NCCC1=CNC2=CC=C(O)C=C12
InChI: InChI=1S/C10H12N2O/c11-4-3-7-6-12-10-2-1-8(13)5-9(7)10/h1-2,5-6,12-13H,3-4,11H2
Instrument: Thermo Scientific Q-Exactive Focus
Instrument type: LC-ESI-ITFT
Ms type: MS2
Ion mode: POSITIVE
Ionization: ESI
Collision energy: 10
Column name: Acquity CSHC18
Retention time: NA
Base peak: 177.10223
Precursor m/z: 177.10223
Precursor type: [M+H]+
m/z	relative intensity
92.5225	1
115.0544	4
117.0575	2
125.8593	1
132.0809	9
133.0649	1
135.05	1
160.0758	999
177.1023	2
