Mass spectrum: DL-O-Phosphoserine; LC-ESI-ITFT; MS2; CE: 20;  [M+H]+
Name: DL-O-Phosphoserine
Class: Organic acids and derivatives; Carboxylic acids and derivatives; Amino acids, peptides, and analogues
Formula: C3H8NO6P
Exact mass: 185.00892
SMILES: NC(COP(O)(O)=O)C(O)=O
InChI: InChI=1S/C3H8NO6P/c4-2(3(5)6)1-10-11(7,8)9/h2H,1,4H2,(H,5,6)(H2,7,8,9)
Instrument: Thermo Scientific Q-Exactive Focus
Instrument type: LC-ESI-ITFT
Ms type: MS2
Ion mode: POSITIVE
Ionization: ESI
Collision energy: 20
Column name: Acquity CSHC18
Retention time: 0.630 min
Base peak: 186.01620
Precursor m/z: 186.01620
Precursor type: [M+H]+
m/z	relative intensity
60.0449	4
70.0291	122
88.0396	999
92.524	1
98.9844	7
111.0124	2
174.9852	1
