Mass spectrum: Nicotianoside XII; LC-ESI-QTOF; MS2; CE: 17.8eV;  [M+NH4]+
Name: Nicotianoside XII
Class: Diterpene
Formula: C44H68O23
Exact mass: 964.4151
SMILES: O=C(O)CC(=O)OC[C@H]1O[C@@H](O[C@](C)(C=C)CC\C=C(/C)CC\C=C(/C)CC\C=C(\C)CO[C@@H]2O[C@H](COC(=O)CC(=O)O)[C@@H](O)[C@H](O)[C@H]2O[C@@H]2O[C@H](CO)[C@@H](O)[C@H](O)[C@H]2O)[C@H](O)[C@@H](O)[C@@H]1O
InChI: InChI=1S/C44H68O23/c1-6-44(5,67-42-39(59)36(56)33(53)26(64-42)20-60-30(50)16-28(46)47)15-9-14-23(3)11-7-10-22(2)12-8-13-24(4)19-62-43-40(66-41-38(58)35(55)32(52)25(18-45)63-41)37(57)34(54)27(65-43)21-61-31(51)17-29(48)49/h6,10,13-14,25-27,32-43,45,52-59H,1,7-9,11-12,15-21H2,2-5H3,(H,46,47)(H,48,49)/b22-10+,23-14+,24-13-/t25-,26-,27-,32-,33-,34-,35+,36+,37+,38-,39-,40-,41+,42+,43-,44-/m1/s1
Instrument: Impact II qTOF
Instrument type: LC-ESI-QTOF
Ms type: MS2
Ion mode: POSITIVE
Ionization: ESI
Collision energy: 17.8eV
Column name: Acquity CSH C18 column (particle size 1.7 μm, column length 2.1 × 50 mm) (Waters)
Retention time: 20.2 min
Base peak: 982.4470
Precursor m/z: 982.4470
Precursor type: [M+NH4]+
m/z	relative intensity
105.0188	3
127.0391	3
149.1338	3
163.1481	4
177.1641	5
213.0407	3
215.1804	8
231.0505	10
249.0613	34
250.0637	3
271.2424	163
272.245	28
273.2525	4
289.2531	15
357.0817	3
375.0927	6
393.1026	12
411.1136	71
412.1163	9
461.0919	6
479.1028	17
497.1144	36
498.1184	4
515.1248	7
519.2953	9
520.2986	3
537.3057	11
538.3117	3
641.1533	5
659.1656	18
660.1688	5
677.1779	3
699.3615	5
716.3849	7
717.3892	3
982.4473	999
