Mass spectrum: 2''-O-Glucosyl-6''-malonylvitexin; LC-ESI-QTOF; MS2; CE: 20-40eV;  [M+H]+
Name: 2''-O-Glucosyl-6''-malonylvitexin
Class: Flavonoid C- glycosides
Formula: C30H32O18
Exact mass: 680.1589
SMILES: C=1C=C(C=CC1C2=CC(C=3C(=CC(=C(C3O2)C4(C(C(C(C(COC(CC(=O)O)=O)(O4)[H])(O)[H])(O)[H])(OC5(C(C(C(C(CO)(O5)[H])(O)[H])(O)[H])(O)[H])[H])[H])[H])O)O)=O)O
InChI: InChI=1S/C30H32O18/c31-8-16-22(39)24(41)26(43)30(47-16)48-29-25(42)23(40)17(9-44-19(38)7-18(36)37)46-28(29)21-13(34)5-12(33)20-14(35)6-15(45-27(20)21)10-1-3-11(32)4-2-10/h1-6,16-17,22-26,28-34,39-43H,7-9H2,(H,36,37)
Instrument: Impact II, Bruker; Dionex 3000, Thermo Scientific
Instrument type: LC-ESI-QTOF
Ms type: MS2
Ion mode: POSITIVE
Ionization: ESI
Collision energy: 20-40eV
Column name: Acquity CSHC18
Retention time: 4.912 min
Base peak: 681.1657
Precursor m/z: 681.1657
Precursor type: [M+H]+
Precursor intensity: 733773.5
m/z	relative intensity
313.174	306
323.0734	387
519.2487	732
681.3221	999
