Mass spectrum: 17,20-dimethyl Prostaglandin F1-alpha; ESI-TOF; MS2; CE: 6.0000000;  [M+H]+
Name: 17,20-dimethyl Prostaglandin F1-alpha
Class: NA
Formula: C22H40O5
Exact mass: 384.28757
SMILES: O[C@@H]1[C@H](CCCCCCC(O)=O)[C@@H](/C=C/[C@@H](O)C[C@@H](C)CCCC)[C@H](O)C1
InChI: InChI=1S/C22H40O5/c1-3-4-9-16(2)14-17(23)12-13-19-18(20(24)15-21(19)25)10-7-5-6-8-11-22(26)27/h12-13,16-21,23-25H,3-11,14-15H2,1-2H3,(H,26,27)/b13-12+/t16-,17+,18+,19+,20-,21+/m0/s1
Instrument: waters xevo g2 TOF
Instrument type: ESI-TOF
Ms type: MS2
Ion mode: POSITIVE
Ionization: ESI
Collision energy: 6.0000000
Column name: Acquity CSHC18
Retention time: 4.064 min
Base peak: 385.29557
Precursor m/z: 385.29557
Precursor type: [M+H]+
m/z	relative intensity
95.0856	16
105.0707	3
111.0802	2
121.1026	3
123.1165	5
133.1018	2
137.1333	22
147.1176	2
171.1161	7
173.1306	2
177.1629	6
187.15	17
191.177	18
203.1205	16
205.16	42
207.1383	40
211.146	8
221.1542	9
223.1682	63
229.1585	16
233.1535	108
234.1552	14
235.1689	9
247.1685	11
249.1845	25
251.1649	16
279.23	12
287.2351	110
288.2411	21
304.2992	20
305.247	418
306.2503	87
313.2509	41
314.2571	7
323.2578	172
324.2589	29
326.3777	148
327.3811	35
331.2628	999
332.2648	135
333.2758	70
334.2815	13
349.2736	334
350.2774	74
351.2336	8
353.1985	20
363.2878	7
365.2703	10
367.2841	135
368.2832	15
377.1767	35
381.2978	21
383.2752	6
386.2578	91
386.7594	40
