Mass spectrum: 1-O-1'-(Z)-octadecenyl-2-hydroxy-sn-glycero-3-phosphoethanolamine; ESI-TOF; MS2; CE: 0.6458333;  [M+H]+
Name: 1-O-1'-(Z)-octadecenyl-2-hydroxy-sn-glycero-3-phosphoethanolamine
Class: NA
Formula: C23H48NO6P
Exact mass: 465.32192
SMILES: [H]OC([H])(C([H])([H])OC([H])=C([H])C([H])([H])C([H])([H])C([H])([H])C([H])([H])C([H])([H])C([H])([H])C([H])([H])C([H])([H])C([H])([H])C([H])([H])C([H])([H])C([H])([H])C([H])([H])C([H])([H])C([H])([H])C([H])([H])[H])C([H])([H])OP(=O)([O-])OC([H])([H])C([H])([H])[N+]([H])([H])[H]
InChI: InChI=1S/C23H48NO6P/c1-2-3-4-5-6-7-8-9-10-11-12-13-14-15-16-17-19-28-21-23(25)22-30-31(26,27)29-20-18-24/h17,19,23,25H,2-16,18,20-22,24H2,1H3,(H,26,27)
Instrument: waters xevo g2 TOF
Instrument type: ESI-TOF
Ms type: MS2
Ion mode: POSITIVE
Ionization: ESI
Collision energy: 0.6458333
Column name: Acquity CSHC18
Retention time: 7.812 min
Base peak: 466.32992
Precursor m/z: 466.32992
Precursor type: [M+H]+
m/z	relative intensity
83.0871	3
84.0818	15
97.1028	8
98.9853	8
111.1185	3
136.9324	25
142.0276	10
155.0113	50
174.949	5
176.9928	10
198.053	9
294.3168	999
295.3191	235
296.3229	25
312.3268	502
313.3301	117
314.3345	9
346.9608	2
392.2926	81
393.295	18
423.2865	10
424.2886	1
427.2574	4
443.223	129
444.2266	58
445.2683	71
446.2717	10
448.283	134
449.3222	70
450.3253	11
461.2336	46
462.2358	2
466.3293	753
467.3325	211
