Mass spectrum: Pipecolic acid; ESI-TOF; MS2; CE: 0.6458333;  [M+H]+
Name: Pipecolic acid
Class: NA
Formula: C6H11NO2
Exact mass: 129.07898
SMILES: OC(=O)C1CCCCN1
InChI: InChI=1S/C6H11NO2/c8-6(9)5-3-1-2-4-7-5/h5,7H,1-4H2,(H,8,9)
Instrument: waters xevo g2 TOF
Instrument type: ESI-TOF
Ms type: MS2
Ion mode: POSITIVE
Ionization: ESI
Collision energy: 0.6458333
Column name: Acquity CSHC18
Retention time: 0.572 min
Base peak: 130.08698
Precursor m/z: 130.08698
Precursor type: [M+H]+
m/z	relative intensity
82.0652	2
84.0813	999
85.0848	61
113.9641	45
130.0866	205
131.0895	13
152.0683	81
174.0517	17
222.0819	15
268.0879	22
269.0849	2
296.0831	4
297.1122	25
313.0849	6
319.0889	3
335.0666	5
426.1918	18
441.156	15
442.1625	5
448.1729	7
