Mass spectrum: Cytidine 5'-diphosphocholine; LC-ESI-QTOF; MS2; CE: 30.22;  [M+Na]+
Name: Cytidine 5'-diphosphocholine
Class: NA
Formula: C14H26N4O11P2
Exact mass: 488.1073
SMILES: C[N+](C)(C)CCOP(=O)([O-])OP(=O)(O)OCC1C(C(C(O1)N2C=CC(=NC2=O)N)O)O
InChI: InChI=1S/C14H26N4O11P2/c1-18(2,3)6-7-26-30(22,23)29-31(24,25)27-8-9-11(19)12(20)13(28-9)17-5-4-10(15)16-14(17)21/h4-5,9,11-13,19-20H,6-8H2,1-3H3,(H3-,15,16,21,22,23,24,25)
Instrument: Bruker MicrOTOF-Q
Instrument type: LC-ESI-QTOF
Ms type: MS2
Ion mode: POSITIVE
Ionization: ESI
Collision energy: 30.22
Column name: Acquity CSHC18
Retention time: NA
Base peak: 511.0966
Precursor m/z: 511.0966
Precursor type: [M+Na]+
m/z	relative intensity
134.0314	16
146.981	20
184.0743	23
206.0557	26
213.9995	30
226.0812	44
226.9489	50
227.952	57
268.0109	76
286.0209	77
322.9701	82
328.0319	95
340.9806	98
452.0221	212
511.0986	999
