Mass spectrum: Feruloylmalate(4-O-8)Sinapylalcohol-2; LC-ESI-QTOF; MS2; CE: 50eV;  [M-H]-
Name: Feruloylmalate(4-O-8)Sinapylalcohol-2
Class: Phenylpropanoid
Formula: C25H28O13
Exact mass: 536.1530
SMILES: OC1=C(OC)C=C(C(O)C(OC2=C(OC)C=C(/C=C/C(OC(CC(O)=O)C(O)=O)=O)C=C2)CO)C=C1OC
InChI: InChI=1S/C25H28O13/c1-34-16-8-13(5-7-22(29)38-19(25(32)33)11-21(27)28)4-6-15(16)37-20(12-26)23(30)14-9-17(35-2)24(31)18(10-14)36-3/h4-10,19-20,23,26,30-31H,11-12H2,1-3H3,(H,27,28)(H,32,33)/b7-5+
Instrument: TIMS-TOF Pro, Bruker Daltonik; Elute UHPLC System, Bruker Daltonik
Instrument type: LC-ESI-QTOF
Ms type: MS2
Ion mode: NEGATIVE
Ionization: ESI
Collision energy: 50eV
Column name: Acquity CSHC18
Retention time: 6.169 min
Base peak: 535.1467
Precursor m/z: 535.1467
Precursor type: [M-H]-
Precursor intensity: 1545
m/z	relative intensity
71.0143	216
115.0046	101
125.0968	70
149.0233	144
150.0317	317
164.0473	340
165.0566	607
166.0588	106
195.0664	555
196.0697	70
223.0631	999
224.0674	57
371.1092	105
401.1261	55
419.1378	739
420.1392	282
421.1384	104
