Mass spectrum: URIDINE DIPHOSPHATEGALACTOSE; LC-ESI-QTOF; MS2; CE: 40;  [M-H]-
Name: URIDINE DIPHOSPHATEGALACTOSE
Class: NA
Formula: C15H24N2O17P2
Exact mass: 566.05502
SMILES: OC[C@H]1O[C@H](O[P@@](O)(=O)O[P@@](O)(=O)OC[C@H]2O[C@H]([C@H](O)[C@@H]2O)N2C=CC(=O)NC2=O)[C@H](O)[C@@H](O)[C@H]1O
InChI: InChI=1S/C15H24N2O17P2/c18-3-5-8(20)10(22)12(24)14(32-5)33-36(28,29)34-35(26,27)30-4-6-9(21)11(23)13(31-6)17-2-1-7(19)16-15(17)25/h1-2,5-6,8-14,18,20-24H,3-4H2,(H,26,27)(H,28,29)(H,16,19,25)/t5-,6-,8+,9-,10+,11-,12-,13-,14-/m1/s1
Instrument: Agilent 6530Â Q-TOF LC/MS
Instrument type: LC-ESI-QTOF
Ms type: MS2
Ion mode: NEGATIVE
Ionization: ESI
Collision energy: 40
Column name: NA
Retention time: 0.200 min
Base peak: 565.05976
Precursor m/z: 565.05976
Precursor type: [M-H]-
Precursor intensity: 147
m/z	relative intensity
78.9725	108
96.981	112
111.02	114
138.9812	119
150.9792	123
158.938	124
192.9883	137
210.9998	147
241.0099	158
272.9672	165
280.0185	270
305.0126	408
320.9748	418
323.0432	529
384.9745	999
