Mass spectrum: 1,2-dilinoleoyl-sn-glycero-3-phosphocholine; ESI-TOF; MS2; CE: 0.6458333;  [M+H]+
Name: 1,2-dilinoleoyl-sn-glycero-3-phosphocholine
Class: NA
Formula: C44H80NO8P
Exact mass: 781.56216
SMILES: [H]C(=C([H])C([H])([H])C([H])([H])C([H])([H])C([H])([H])C([H])([H])[H])C([H])([H])C([H])=C([H])C([H])([H])C([H])([H])C([H])([H])C([H])([H])C([H])([H])C([H])([H])C([H])([H])C(=O)OC([H])([H])C([H])(OC(=O)C([H])([H])C([H])([H])C([H])([H])C([H])([H])C([H])([H])C([H])([H])C([H])([H])C([H])=C([H])C([H])([H])C([H])=C([H])C([H])([H])C([H])([H])C([H])([H])C([H])([H])C([H])([H])[H])C([H])([H])OP(=O)([O-])OC([H])([H])C([H])([H])[N+](C([H])([H])[H])(C([H])([H])[H])C([H])([H])[H]
InChI: InChI=1S/C44H80NO8P/c1-6-8-10-12-14-16-18-20-22-24-26-28-30-32-34-36-43(46)50-40-42(41-52-54(48,49)51-39-38-45(3,4)5)53-44(47)37-35-33-31-29-27-25-23-21-19-17-15-13-11-9-7-2/h14-17,20-23,42H,6-13,18-19,24-41H2,1-5H3
Instrument: waters xevo g2 TOF
Instrument type: ESI-TOF
Ms type: MS2
Ion mode: POSITIVE
Ionization: ESI
Collision energy: 0.6458333
Column name: Acquity CSHC18
Retention time: 10.735 min
Base peak: 782.57016
Precursor m/z: 782.57016
Precursor type: [M+H]+
m/z	relative intensity
86.0977	16
97.9693	1
104.1082	2
162.9825	3
184.0744	999
185.0777	60
186.0792	9
303.2166	1
319.1955	66
320.1988	13
323.1862	1
333.1527	2
335.1681	4
401.1448	10
443.2563	9
444.2571	2
502.3297	97
503.3331	79
504.3353	7
520.3404	3
599.5036	22
600.5076	7
601.5117	2
621.485	7
622.4862	3
661.4233	6
661.9254	6
662.4265	4
745.4774	11
746.4811	5
747.4882	1
782.5672	345
783.5722	355
