Mass spectrum: p-Aminobenzoic acid; LC-ESI-ITFT; MS2; CE: 100;  [M+H]+
Name: p-Aminobenzoic acid
Class: Benzenoids; Benzene and substituted derivatives; Benzoic acids and derivatives
Formula: C7H7NO2
Exact mass: 137.04768
SMILES: NC1=CC=C(C=C1)C(O)=O
InChI: InChI=1S/C7H7NO2/c8-6-3-1-5(2-4-6)7(9)10/h1-4H,8H2,(H,9,10)
Instrument: Thermo Scientific Q-Exactive Focus
Instrument type: LC-ESI-ITFT
Ms type: MS2
Ion mode: POSITIVE
Ionization: ESI
Collision energy: 100
Column name: Acquity CSHC18
Retention time: 2.570 min
Base peak: 138.05496
Precursor m/z: 138.05496
Precursor type: [M+H]+
m/z	relative intensity
50.0156	923
53.0027	999
61.0078	128
62.0155	96
65.0026	228
72.7191	57
74.0155	690
89.0024	56
91.5566	57
96.864	56
