Mass spectrum: Nicotianoside Ia; LC-ESI-QTOF; MS2; CE: 50eV;  [M+NH4]+
Name: Nicotianoside Ia
Class: Diterpene
Formula: C41H66O19
Exact mass: 862.4198
SMILES: O=C(O)CC(=O)OC[C@H]1O[C@@H](OCC(/C)=C\CCC(\C)=C\CCC(\C)=C\CC[C@](C)(O[C@@H]2O[C@H](CO)[C@@H](O[C@@H]3O[C@@H](C)[C@H](O)[C@@H](O)[C@H]3O)[C@H](O)[C@H]2O)C=C)[C@H](O)[C@@H](O)[C@@H]1O
InChI: InChI=1S/C41H66O19/c1-7-41(6,60-40-36(53)33(50)37(25(18-42)57-40)59-39-35(52)31(48)29(46)24(5)56-39)16-10-15-22(3)12-8-11-21(2)13-9-14-23(4)19-55-38-34(51)32(49)30(47)26(58-38)20-54-28(45)17-27(43)44/h7,11,14-15,24-26,29-40,42,46-53H,1,8-10,12-13,16-20H2,2-6H3,(H,43,44)/b21-11+,22-15+,23-14-/t24-,25+,26+,29-,30+,31+,32-,33+,34+,35+,36+,37+,38+,39-,40-,41+/m0/s1
Instrument: Impact II qTOF
Instrument type: LC-ESI-QTOF
Ms type: MS2
Ion mode: POSITIVE
Ionization: ESI
Collision energy: 50eV
Column name: Direct injection MS/MS
Retention time: 0.9 min
Base peak: 880.4570
Precursor m/z: 880.4570
Precursor type: [M+NH4]+
m/z	relative intensity
121.1015	71
127.0394	151
129.0543	89
133.1013	98
135.117	185
149.132	357
159.1163	224
161.1316	354
163.1474	361
177.1633	208
189.1632	219
201.1627	247
203.1785	241
215.1792	522
216.1828	88
231.0509	261
237.0766	83
249.0599	108
271.2418	999
272.2462	181
289.2515	106
559.2872	134
