Mass spectrum: Indole-3-carboxaldehyde; LC-ESI-QTOF; MS2; CE: 35.00;  [M+H]+
Name: Indole-3-carboxaldehyde
Class: NA
Formula: C9H7NO
Exact mass: 145.0528
SMILES: C1=CC=C2C(=C1)C(=CN2)C=O
InChI: InChI=1S/C9H7NO/c11-6-7-5-10-9-4-2-1-3-8(7)9/h1-6,10H
Instrument: Bruker MicrOTOF-Q
Instrument type: LC-ESI-QTOF
Ms type: MS2
Ion mode: POSITIVE
Ionization: ESI
Collision energy: 35.00
Column name: Acquity CSHC18
Retention time: NA
Base peak: 146.0595
Precursor m/z: 146.0595
Precursor type: [M+H]+
m/z	relative intensity
116.0482	82
117.0558	999
118.0569	180
119.0638	37
144.0443	43
