Mass spectrum: Beraprost (sodium salt); ESI-TOF; MS2; CE: 0.6458333;  [M+H]+
Name: Beraprost (sodium salt)
Class: NA
Formula: C24H29NaO5
Exact mass: 420.19127
SMILES: O[C@H]1C(/C=C/[C@@H](O)C(C)CC#CC)[C@@H](C(C=CC=C2CCCC([O-])=O)=C2O3)[C@@H]3C1.[Na+]
InChI: InChI=1S/C24H30O5.Na/c1-3-4-7-15(2)19(25)13-12-17-20(26)14-21-23(17)18-10-5-8-16(24(18)29-21)9-6-11-22(27)28;/h5,8,10,12-13,15,17,19-21,23,25-26H,6-7,9,11,14H2,1-2H3,(H,27,28);/q;+1/p-1/b13-12+;/t15?,17?,19-,20-,21+,23+;/m1./s1
Instrument: waters xevo g2 TOF
Instrument type: ESI-TOF
Ms type: MS2
Ion mode: POSITIVE
Ionization: ESI
Collision energy: 0.6458333
Column name: Acquity CSHC18
Retention time: 3.846 min
Base peak: 421.19927
Precursor m/z: 421.19927
Precursor type: [M+H]+
m/z	relative intensity
105.0705	56
119.0856	83
121.1025	148
129.0715	46
131.0871	50
133.1064	17
145.1022	132
146.1065	21
147.0808	38
157.1017	106
159.1177	73
163.1127	52
169.0642	16
171.0813	39
177.1275	19
181.1022	14
183.1181	130
187.0806	18
199.0764	85
200.0807	16
205.1008	21
207.0821	10
210.095	3
211.1101	9
217.0871	114
218.0905	15
225.0941	17
237.0924	14
239.1096	83
240.1049	15
243.108	12
245.129	8
251.1101	44
253.1237	18
255.1033	28
257.125	20
269.1179	41
270.1202	15
271.1433	11
273.1253	32
277.1198	21
281.116	9
291.138	133
293.1522	16
303.137	19
309.1492	120
310.1582	17
311.1587	12
317.1535	20
319.1685	22
345.1857	183
346.1879	67
361.1789	26
363.1963	269
364.1999	58
375.1218	7
379.191	15
381.2072	67
382.2096	18
383.1382	40
401.1456	83
402.1446	20
405.2249	38
417.1161	78
418.1062	10
419.1526	163
420.1563	31
421.2001	999
422.2031	314
