Mass spectrum: Phenethylamine; LC-ESI-QTOF; MS2; CE: 15.00;  [M-NH3+H]+
Name: Phenethylamine
Class: NA
Formula: C8H11N
Exact mass: 121.0891
SMILES: C1=CC=C(C=C1)CCN
InChI: InChI=1S/C8H11N/c9-7-6-8-4-2-1-3-5-8/h1-5H,6-7,9H2
Instrument: Bruker MicrOTOF-Q
Instrument type: LC-ESI-QTOF
Ms type: MS2
Ion mode: POSITIVE
Ionization: ESI
Collision energy: 15.00
Column name: Acquity CSHC18
Retention time: NA
Base peak: 105.0699
Precursor m/z: 105.0699
Precursor type: [M-NH3+H]+
m/z	relative intensity
77.0361	6
79.0503	2
102.0443	29
102.5688	2
103.052	999
103.1857	3
103.2437	3
103.332	4
103.5875	2
103.6368	3
104.0013	2
104.058	103
104.5292	3
104.6573	3
104.9813	5
105.0676	756
105.2589	2
105.3562	4
106.0718	104
106.4207	2
108.2784	2
108.3214	3
108.5284	18
109.3078	2
328.3743	4
422.6604	3
