Mass spectrum: PYRIDOXINE; LC-ESI-QFT; MS2; CE: 30eV;  [M+H]+
Name: PYRIDOXINE
Class: NA
Formula: C8H11NO3
Exact mass: 169.07389
SMILES: CC1=NC=C(CO)C(CO)=C1O
InChI: InChI=1S/C8H11NO3/c1-5-8(12)7(4-11)6(3-10)2-9-5/h2,10-12H,3-4H2,1H3
Instrument: Q-Exactive Orbitrap, Thermo Scientfic; Ultimate 3000 HPLC, Thermo Scientfic
Instrument type: LC-ESI-QFT
Ms type: MS2
Ion mode: POSITIVE
Ionization: ESI
Collision energy: 30eV
Column name: Acquity CSHC18
Retention time: 0.809 min
Base peak: 170.0812
Precursor m/z: 170.0812
Precursor type: [M+H]+
Precursor intensity: 199
m/z	relative intensity
50.1397	31
50.7509	22
51.2037	19
52.2962	21
54.3833	23
61.725	23
80.6175	24
81.2417	24
84.0195	25
96.0814	41
102.791	39
117.8492	28
119.8556	26
124.076	211
135.0637	45
150.599	26
153.068	45
153.0742	999
157.6582	30
166.6756	29
171.0846	348
