Mass spectrum: Noscapine; LC-ESI-QTOF; MS2; CE: 23.56;  [M+H]+
Name: Noscapine
Class: NA
Formula: C22H23NO7
Exact mass: 413.1475
SMILES: CN1CCC2=CC3=C(C(=C2C1C4C5=C(C(=C(C=C5)OC)OC)C(=O)O4)OC)OCO3
InChI: InChI=1S/C22H23NO7/c1-23-8-7-11-9-14-20(29-10-28-14)21(27-4)15(11)17(23)18-12-5-6-13(25-2)19(26-3)16(12)22(24)30-18/h5-6,9,17-18H,7-8,10H2,1-4H3
Instrument: Bruker MicrOTOF-Q
Instrument type: LC-ESI-QTOF
Ms type: MS2
Ion mode: POSITIVE
Ionization: ESI
Collision energy: 23.56
Column name: Acquity CSHC18
Retention time: NA
Base peak: 414.1547
Precursor m/z: 414.1547
Precursor type: [M+H]+
m/z	relative intensity
179.0706	29
205.0727	30
206.0814	31
218.0815	34
219.0888	40
220.1024	46
221.1008	47
248.0916	48
295.0964	49
307.0907	53
321.077	56
322.0842	65
323.0918	65
324.0977	65
325.1066	66
334.0845	71
335.0895	75
338.0845	79
350.08	83
351.0846	102
352.0973	106
353.1049	125
354.1064	131
355.1137	176
365.1031	241
366.1041	251
381.1211	251
383.1147	255
396.1445	306
414.1557	888
415.1584	999
