Mass spectrum: Tirotundifolin C; LC-ESI-ITFT; MS2; CE: 50eV;  [M+H]+
Name: Tirotundifolin C
Class: Sesquiterpenelactone; Eudesmanolide
Formula: C20H26O6
Exact mass: 362.1729
SMILES: CC(O)C(=C)C(=O)O[C@@H]2C[C@@]3(C)[C@H](O)CC=C(C)[C@@H]3[C@H]1OC(=O)C(=C)[C@@H]12
InChI: InChI=1S/C20H26O6/c1-9-6-7-14(22)20(5)8-13(25-18(23)10(2)12(4)21)15-11(3)19(24)26-17(15)16(9)20/h6,12-17,21-22H,2-3,7-8H2,1,4-5H3/t12?,13-,14-,15-,16-,17+,20+/m1/s1
Instrument: Q Exactive Plus, ThermoFisher Scientific
Instrument type: LC-ESI-ITFT
Ms type: MS2
Ion mode: POSITIVE
Ionization: ESI
Collision energy: 50eV
Column name: Acquity CSHC18
Retention time: 6.128 min
Base peak: 363.1793
Precursor m/z: 363.1793
Precursor type: [M+H]+
Precursor intensity: 7273626
m/z	relative intensity
51.0959	11
55.9352	30
70.1164	28
82.8188	13
95.4211	12
99.0449	22
102.3871	15
103.5665	13
129.0528	12
143.0869	15
151.0753	25
157.1004	17
159.1179	22
163.4336	12
169.0663	13
171.0794	28
173.1331	28
183.1165	999
187.0764	25
187.1128	16
201.1278	153
204.0237	19
211.1129	201
213.0936	16
213.9933	14
219.1376	87
228.1145	21
229.1208	742
233.637	18
236.0124	16
244.0564	13
247.1332	599
248.0129	55
265.1443	752
270.0598	14
272.0491	15
274.0302	15
274.0647	17
292.0383	75
292.0762	14
293.0443	19
299.1621	64
300.0432	152
318.0529	218
336.0682	49
345.1713	386
363.1814	232
