Mass spectrum: ATP; LC-ESI-QTOF; MS2; CE: 100;  [M-H]-
Name: ATP
Class: NA
Formula: C10H16N5O13P3
Exact mass: 506.9957
SMILES: C1=NC(=C2C(=N1)N(C=N2)C3C(C(C(O3)COP(=O)(O)OP(=O)(O)OP(=O)(O)O)O)O)N
InChI: InChI=1S/C10H16N5O13P3/c11-8-5-9(13-2-12-8)15(3-14-5)10-7(17)6(16)4(26-10)1-25-30(21,22)28-31(23,24)27-29(18,19)20/h2-4,6-7,10,16-17H,1H2,(H,21,22)(H,23,24)(H2,11,12,13)(H2,18,19,20)
Instrument: impact II
Instrument type: LC-ESI-QTOF
Ms type: MS2
Ion mode: NEGATIVE
Ionization: ESI
Collision energy: 100
Column name: Acquity CSHC18
Retention time: 1.872 min
Base peak: 505.9883
Precursor m/z: 505.9883
Precursor type: [M-H]-
m/z	relative intensity
62.9644	4
78.959	999
78.9692	16
80.9634	5
92.0255	5
96.9698	6
107.0366	18
134.0474	27
135.0511	3
158.9256	43
220.8809	2
