Mass spectrum: Wogonoside; LC-ESI-QTOF; MS2; CE: 50eV;  [M+H]+
Name: Wogonoside
Class: Flavone
Formula: C22H20O11
Exact mass: 460.1006
SMILES: COC1=C(C=C(C2=C1OC(=CC2=O)C3=CC=CC=C3)O)OC4C(C(C(C(O4)C(=O)O)O)O)O
InChI: InChI=1S/C22H20O11/c1-30-18-13(32-22-17(27)15(25)16(26)20(33-22)21(28)29)8-11(24)14-10(23)7-12(31-19(14)18)9-5-3-2-4-6-9/h2-8,15-17,20,22,24-27H,1H3,(H,28,29)
Instrument: TIMS-TOF Pro, Bruker Daltonik; Elute UHPLC System, Bruker Daltonik
Instrument type: LC-ESI-QTOF
Ms type: MS2
Ion mode: POSITIVE
Ionization: ESI
Collision energy: 50eV
Column name: Acquity CSHC18
Retention time: 7.123 min
Base peak: 461.1059
Precursor m/z: 461.1059
Precursor type: [M+H]+
Precursor intensity: 506958.6
m/z	relative intensity
157.0811	1
175.4541	1
252.0359	1
253.7138	1
270.0075	2
270.0205	5
270.0518	124
271.0279	3
271.0566	10
272.058	1
284.0661	1
284.8127	1
285.0323	8
285.0484	8
285.0698	999
285.5549	4
286.027	2
286.0591	6
287.069	1
287.0798	8
461.0378	1
461.0855	2
