Mass spectrum: O-PHOSPHOSERINE; LC-ESI-QFT; MS2; CE: 30eV;  [M+H]+
Name: O-PHOSPHOSERINE
Class: NA
Formula: C3H8NO6P
Exact mass: 185.00892
SMILES: NC(COP(O)(O)=O)C(O)=O
InChI: InChI=1S/C3H8NO6P/c4-2(3(5)6)1-10-11(7,8)9/h2H,1,4H2,(H,5,6)(H2,7,8,9)
Instrument: Q-Exactive Orbitrap, Thermo Scientfic; Ultimate 3000 HPLC, Thermo Scientfic
Instrument type: LC-ESI-QFT
Ms type: MS2
Ion mode: POSITIVE
Ionization: ESI
Collision energy: 30eV
Column name: Acquity CSHC18
Retention time: 0.548 min
Base peak: 186.0162
Precursor m/z: 186.0162
Precursor type: [M+H]+
Precursor intensity: 115
m/z	relative intensity
55.9352	6
56.9431	1
70.0295	20
72.9377	1
78.9493	1
88.04	999
89.0371	1
89.0434	18
89.0461	1
90.9485	4
91.9562	5
97.9693	1
99.9697	2
100.9677	4
101.9651	1
112.1126	9
113.9643	32
114.972	12
116.9725	15
117.9803	76
118.9433	2
118.9678	17
118.9779	4
118.9834	8
119.951	8
119.9757	113
131.9747	17
135.9456	4
135.9911	1
136.9535	1
137.9861	4
139.9884	3
140.0114	2
141.959	7
141.9837	4
142.9916	1
143.9595	4
145.9548	3
146.9616	1
153.9562	1
159.9695	8
161.9698	9
162.9676	3
162.9738	1
163.9407	15
163.9653	16
181.9513	13
186.0166	24
186.1856	3
186.1974	1
203.9384	1
