Mass spectrum: Scopoletin; LC-ESI-QTOF; MS2; CE: 50eV;  [M+H]+
Name: Scopoletin
Class: Coumarin
Formula: C10H8O4
Exact mass: 192.0423
SMILES: COC1=C(C=C2C(=C1)C=CC(=O)O2)O
InChI: InChI=1S/C10H8O4/c1-13-9-4-6-2-3-10(12)14-8(6)5-7(9)11/h2-5,11H,1H3
Instrument: TIMS-TOF Pro, Bruker Daltonik; Elute UHPLC System, Bruker Daltonik
Instrument type: LC-ESI-QTOF
Ms type: MS2
Ion mode: POSITIVE
Ionization: ESI
Collision energy: 50eV
Column name: Acquity CSHC18
Retention time: 5.320 min
Base peak: 193.0496
Precursor m/z: 193.0496
Precursor type: [M+H]+
Precursor intensity: 521861.3
m/z	relative intensity
21.8373	3
39.0233	7
50.0107	5
51.0233	22
52.2351	1
53.0386	77
65.0256	8
65.0384	13
66.0467	112
68.9969	11
76.0313	7
77.039	47
79.0136	5
81.0076	5
81.0333	80
89.037	6
94.0245	6
94.0414	117
95.0442	4
100.2314	2
105.0339	32
108.6764	4
114.0624	3
121.0284	41
122.0218	5
122.0359	85
133.0166	9
133.0294	560
134.0322	25
135.0389	4
137.0579	13
138.0646	15
146.0363	2
149.0233	17
149.0601	40
150.0322	69
151.0366	3
161.0239	12
165.0553	67
177.0199	11
178.0261	999
179.0289	40
180.535	3
192.039	1
193.0231	14
193.4444	12
