Mass spectrum: Putrescine; LC-ESI-QTOF; MS2; CE: 10;  [M+H]+
Name: Putrescine
Class: NA
Formula: C4H12N2
Exact mass: 88.10005
SMILES: C(CCN)CN
InChI: InChI=1S/C4H12N2/c5-3-1-2-4-6/h1-6H2
Instrument: impact II
Instrument type: LC-ESI-QTOF
Ms type: MS2
Ion mode: POSITIVE
Ionization: ESI
Collision energy: 10
Column name: Acquity CSHC18
Retention time: 1.853 min
Base peak: 89.10754
Precursor m/z: 89.10754
Precursor type: [M+H]+
m/z	relative intensity
72.0813	999
72.0914	71
73.0842	57
89.1074	62
