Mass spectrum: Nicotinamide; LC-ESI-QTOF; MS2; CE: 15.00;  [M+H]+
Name: Nicotinamide
Class: NA
Formula: C6H6N2O
Exact mass: 122.0480
SMILES: C1=CC(=CN=C1)C(=O)N
InChI: InChI=1S/C6H6N2O/c7-6(9)5-2-1-3-8-4-5/h1-4H,(H2,7,9)
Instrument: Bruker MicrOTOF-Q
Instrument type: LC-ESI-QTOF
Ms type: MS2
Ion mode: POSITIVE
Ionization: ESI
Collision energy: 15.00
Column name: Acquity CSHC18
Retention time: NA
Base peak: 123.0553
Precursor m/z: 123.0553
Precursor type: [M+H]+
m/z	relative intensity
121.0389	2
123.0539	999
123.1897	1
123.2224	1
123.2589	1
123.2938	2
123.3319	2
123.3874	1
123.4577	1
124.0563	83
125.0647	1
