Mass spectrum: quinic acid; LC-ESI-QTOF; MS2; CE: -10, -35, -60V;  [M-H]-
Name: quinic acid
Class: NA
Formula: C7H12O6
Exact mass: 192.0634
SMILES: C1C(C(C(CC1(C(=O)O)O)O)O)O
InChI: InChI=1S/C7H12O6/c8-3-1-7(13,6(11)12)2-4(9)5(3)10/h3-5,8-10,13H,1-2H2,(H,11,12)
Instrument: TripleToF 5600; Sciex
Instrument type: LC-ESI-QTOF
Ms type: MS2
Ion mode: NEGATIVE
Ionization: ESI
Collision energy: -10, -35, -60V
Column name: Acquity CSHC18
Retention time: 2.693 min
Base peak: 191.0575
Precursor m/z: 191.0575
Precursor type: [M-H]-
Precursor intensity: 618553.8
m/z	relative intensity
67.0171	10
69.036	10
71.0123	18
73.0286	6
83.0513	9
85.0301	193
87.0084	31
93.035	86
97.0312	2
108.0253	13
109.0283	23
127.0443	54
145.0515	18
171.0364	26
172.0274	5
173.0455	46
190.4507	27
191.061	999
