Mass spectrum: Epi-Inunolide; LC-ESI-ITFT; MS2; CE: 50eV;  [M+H]+
Name: Epi-Inunolide
Class: Sesquiterpenelactone; Eudesmanolide
Formula: C15H20O2
Exact mass: 232.1463
SMILES: C=C1[C@H]2CC=C(C)CCC=C(C)C[C@@H]2OC1=O
InChI: InChI=1S/C15H20O2/c1-10-5-4-6-11(2)9-14-13(8-7-10)12(3)15(16)17-14/h6-7,13-14H,3-5,8-9H2,1-2H3/t13-,14+/m1/s1
Instrument: Q Exactive Plus, ThermoFisher Scientific
Instrument type: LC-ESI-ITFT
Ms type: MS2
Ion mode: POSITIVE
Ionization: ESI
Collision energy: 50eV
Column name: Acquity CSHC18
Retention time: 12.254 min
Base peak: 233.1529
Precursor m/z: 233.1529
Precursor type: [M+H]+
Precursor intensity: 247872500
m/z	relative intensity
55.0549	31
67.055	25
69.0705	23
79.0549	23
81.0707	227
91.0552	28
93.07	166
95.0858	246
103.1874	19
105.07	174
107.0855	164
109.1018	75
110.1227	19
117.0707	18
119.0859	113
121.1017	37
125.0602	23
131.085	243
133.0641	28
133.1005	90
139.075	73
145.1005	261
145.7727	17
147.1173	142
151.0746	35
155.0855	32
159.0793	45
159.1171	253
161.131	139
163.0751	22
171.1174	20
173.0961	70
175.1401	17
177.0908	197
187.1468	999
191.106	19
197.1334	135
205.1595	45
215.1418	411
233.1548	784
