Mass spectrum: 17-phenoxy trinor Prostaglandin F2-alpha; ESI-TOF; MS2; CE: 6.0000000;  [M+H]+
Name: 17-phenoxy trinor Prostaglandin F2-alpha
Class: NA
Formula: C23H32O6
Exact mass: 404.21989
SMILES: OC(=O)CCC/C=C\C[C@H]1[C@@H](O)C[C@@H](O)[C@@H]1\C=C\[C@@H](O)CCOc1ccccc1
InChI: InChI=1S/C23H32O6/c24-17(14-15-29-18-8-4-3-5-9-18)12-13-20-19(21(25)16-22(20)26)10-6-1-2-7-11-23(27)28/h1,3-6,8-9,12-13,17,19-22,24-26H,2,7,10-11,14-16H2,(H,27,28)/b6-1-,13-12+/t17-,19-,20-,21+,22-/m1/s1
Instrument: waters xevo g2 TOF
Instrument type: ESI-TOF
Ms type: MS2
Ion mode: POSITIVE
Ionization: ESI
Collision energy: 6.0000000
Column name: Acquity CSHC18
Retention time: 3.382 min
Base peak: 405.22789
Precursor m/z: 405.22789
Precursor type: [M+H]+
m/z	relative intensity
105.0708	23
113.9649	62
133.0658	800
134.0688	72
145.1043	3
147.0814	40
149.0603	11
153.0387	5
157.0643	12
159.0809	116
160.0828	10
171.0986	1
180.1339	8
181.1218	5
183.0815	51
185.0966	13
187.1138	43
193.1192	10
195.0786	11
197.1144	3
199.1109	10
201.1267	15
204.5786	6
205.1225	84
206.127	8
207.1395	13
213.0875	19
217.1224	4
219.1389	20
221.1142	5
224.1178	16
225.1256	12
230.2479	13
235.166	63
237.1289	18
239.1444	41
241.1197	6
249.1252	14
257.153	58
267.1394	27
275.1667	23
289.153	6
291.1653	4
307.1645	16
315.1744	57
316.1732	12
326.1839	5
333.1838	307
334.1885	74
335.1879	8
349.1707	4
351.1514	999
352.1981	479
353.2075	67
369.157	274
370.2111	130
371.2188	25
381.1492	4
386.1185	17
388.2178	23
389.2266	4
397.1107	17
