Mass spectrum: 4-PYRIDOXATE; LC-ESI-QFT; MS2; CE: 30eV;  [M+H]+
Name: 4-PYRIDOXATE
Class: NA
Formula: C8H9NO4
Exact mass: 183.05316
SMILES: CC1=NC=C(CO)C(C(O)=O)=C1O
InChI: InChI=1S/C8H9NO4/c1-4-7(11)6(8(12)13)5(3-10)2-9-4/h2,10-11H,3H2,1H3,(H,12,13)
Instrument: Q-Exactive Orbitrap, Thermo Scientfic; Ultimate 3000 HPLC, Thermo Scientfic
Instrument type: LC-ESI-QFT
Ms type: MS2
Ion mode: POSITIVE
Ionization: ESI
Collision energy: 30eV
Column name: Acquity CSHC18
Retention time: 1.163 min
Base peak: 184.0604
Precursor m/z: 184.0604
Precursor type: [M+H]+
Precursor intensity: 176
m/z	relative intensity
53.2406	18
57.0854	22
57.7885	18
58.8831	18
60.202	21
60.4408	17
60.9441	19
65.0393	43
65.3726	23
75.6045	20
80.7343	20
99.0354	21
102.669	25
120.0449	38
127.0533	20
138.0553	97
149.0431	123
165.338	23
167.0475	37
167.0535	999
182.1004	22
185.0642	271
195.3748	27
