Mass spectrum: isopentenyl pyrophosphate; LC-ESI-QTOF; MS2; CE: -10, -35, -60V;  [M-H]-
Name: isopentenyl pyrophosphate
Class: NA
Formula: C5H12O7P2
Exact mass: 246.0058
SMILES: CC(=C)CCOP(=O)(O)OP(=O)(O)O
InChI: InChI=1S/C5H12O7P2/c1-5(2)3-4-11-14(9,10)12-13(6,7)8/h1,3-4H2,2H3,(H,9,10)(H2,6,7,8)
Instrument: TripleToF 5600; Sciex
Instrument type: LC-ESI-QTOF
Ms type: MS2
Ion mode: NEGATIVE
Ionization: ESI
Collision energy: -10, -35, -60V
Column name: Acquity CSHC18
Retention time: 14.037 min
Base peak: 244.9968
Precursor m/z: 244.9968
Precursor type: [M-H]-
Precursor intensity: 319663.8
m/z	relative intensity
78.9595	999
80.9628	11
158.9266	113
176.9361	12
190.1108	2
226.9912	99
242.183	29
244.2349	13
244.9966	831
