Mass spectrum: 1,3-Diphenylurea; LC-ESI-ITFT; MS2; CE: 45eV;  [M+H]+
Name: 1,3-Diphenylurea
Class: cytokinin
Formula: C13H12N2O
Exact mass: 212.0950
SMILES: C1=CC=C(C=C1)NC(=O)NC2=CC=CC=C2
InChI: InChI=1S/C13H12N2O/c16-13(14-11-7-3-1-4-8-11)15-12-9-5-2-6-10-12/h1-10H,(H2,14,15,16)
Instrument: LTQ Orbitrap XL, Thermo Scientfic; Dionex Ultimate 300
Instrument type: LC-ESI-ITFT
Ms type: MS2
Ion mode: POSITIVE
Ionization: ESI
Collision energy: 45eV
Column name: Alltima C18
Retention time: 18.99 min
Base peak: 213.1020
Precursor m/z: 213.1020
Precursor type: [M+H]+
m/z	relative intensity
76.8043	12
93.8505	999
