Mass spectrum: L-Arabinose; ESI-TOF; MS2; CE: 0.6458333;  [M+H]+
Name: L-Arabinose
Class: NA
Formula: C5H10O5
Exact mass: 150.05282
SMILES: OC1COC(O)C(O)C1O
InChI: InChI=1S/C5H10O5/c6-2-1-10-5(9)4(8)3(2)7/h2-9H,1H2
Instrument: waters xevo g2 TOF
Instrument type: ESI-TOF
Ms type: MS2
Ion mode: POSITIVE
Ionization: ESI
Collision energy: 0.6458333
Column name: Acquity CSHC18
Retention time: 0.560 min
Base peak: 151.06082
Precursor m/z: 151.06082
Precursor type: [M+H]+
m/z	relative intensity
98.9754	324
101.9404	567
110.9764	212
113.964	999
129.0514	18
163.978	18
169.9677	467
173.0423	18
174.9677	462
185.9613	267
186.9744	18
203.9727	18
204.9798	18
235.0135	18
245.9822	139
261.9971	18
263.9932	18
264.997	18
287.8915	18
354.022	18
365.1065	270
