Mass spectrum: 16-phenoxy tetranor Prostaglandin A2; ESI-TOF; MS2; CE: 6.0000000;  [M+H]+
Name: 16-phenoxy tetranor Prostaglandin A2
Class: NA
Formula: C22H26O5
Exact mass: 370.17802
SMILES: O=C1[C@H](C/C=C\CCCC(O)=O)[C@@H](/C=C/[C@@H](O)COC2=CC=CC=C2)C=C1
InChI: InChI=1S/C22H26O5/c23-18(16-27-19-8-4-3-5-9-19)14-12-17-13-15-21(24)20(17)10-6-1-2-7-11-22(25)26/h1,3-6,8-9,12-15,17-18,20,23H,2,7,10-11,16H2,(H,25,26)/b6-1-,14-12+/t17-,18+,20+/m0/s1
Instrument: waters xevo g2 TOF
Instrument type: ESI-TOF
Ms type: MS2
Ion mode: POSITIVE
Ionization: ESI
Collision energy: 6.0000000
Column name: Acquity CSHC18
Retention time: 3.414 min
Base peak: 371.18602
Precursor m/z: 371.18602
Precursor type: [M+H]+
m/z	relative intensity
107.0486	11
113.965	142
127.9796	63
131.0505	14
133.0654	46
145.0656	66
157.0655	121
158.06	14
159.0807	25
174.0694	80
181.1019	50
183.0789	60
187.0574	26
195.1175	95
196.0653	289
196.5661	65
197.0949	35
199.1108	66
205.0859	148
213.1283	121
214.1349	15
215.1145	18
217.121	67
221.1001	8
223.1119	396
224.1142	72
239.1068	16
241.1229	999
242.1265	159
245.1141	21
251.1058	128
259.1336	499
260.1405	76
261.1373	14
273.1467	19
291.1576	17
315.0887	24
317.1005	124
318.1598	13
335.1662	301
336.1675	282
353.1753	664
