Mass spectrum: Heraclenol; LC-ESI-ITFT; MS2; CE: 45eV;  [M+H]+
Name: Heraclenol
Class: coumarin
Formula: C16H16O6
Exact mass: 304.0947
SMILES: CC(C)(C(COC1=C2C(=CC3=C1OC=C3)C=CC(=O)O2)O)O
InChI: InChI=1S/C16H16O6/c1-16(2,19)11(17)8-21-15-13-10(5-6-20-13)7-9-3-4-12(18)22-14(9)15/h3-7,11,17,19H,8H2,1-2H3
Instrument: LTQ Orbitrap XL, Thermo Scientfic; Dionex Ultimate 300
Instrument type: LC-ESI-ITFT
Ms type: MS2
Ion mode: POSITIVE
Ionization: ESI
Collision energy: 45eV
Column name: Alltima C18
Retention time: 13.83 min
Base peak: 305.1020
Precursor m/z: 305.1020
Precursor type: [M+H]+
m/z	relative intensity
163.3142	35
227.0456	356
243.036	677
257.0268	178
263.9291	999
265.9896	214
284.9835	178
