Mass spectrum: GDP; LC-ESI-QTOF; MS2; CE: 10;  [M+H]+
Name: GDP
Class: NA
Formula: C10H15N5O11P2
Exact mass: 443.02433
SMILES: C1=NC2=C(N1C3C(C(C(O3)COP(=O)(O)OP(=O)(O)O)O)O)N=C(NC2=O)N
InChI: InChI=1S/C10H15N5O11P2/c11-10-13-7-4(8(18)14-10)12-2-15(7)9-6(17)5(16)3(25-9)1-24-28(22,23)26-27(19,20)21/h2-3,5-6,9,16-17H,1H2,(H,22,23)(H2,19,20,21)(H3,11,13,14,18)
Instrument: impact II
Instrument type: LC-ESI-QTOF
Ms type: MS2
Ion mode: POSITIVE
Ionization: ESI
Collision energy: 10
Column name: Acquity CSHC18
Retention time: 1.278 min
Base peak: 444.03320
Precursor m/z: 444.03320
Precursor type: [M+H]+
m/z	relative intensity
119.0843	29
152.0564	496
427.2302	181
441.3312	207
441.7912	174
442.3331	188
443.3338	287
444.0311	999
444.2516	197
444.2925	140
445.0347	170
445.1842	173
445.2402	304
445.2765	151
446.2381	277
