Mass spectrum: pinocembrin; LC-ESI-ITFT; MS2; CE: 0.3;  [M+H]+
Name: pinocembrin
Class: flavanones
Formula: C15H12O4
Exact mass: 256.0736
SMILES: C1C(OC2=CC(=CC(=C2C1=O)O)O)C3=CC=CC=C3
InChI: InChI=1S/C15H12O4/c16-10-6-11(17)15-12(18)8-13(19-14(15)7-10)9-4-2-1-3-5-9/h1-7,13,16-17H,8H2
Instrument: LTQ-Orbitrap XL hybrid mass spectrometer (Thermo Scientific)
Instrument type: LC-ESI-ITFT
Ms type: MS2
Ion mode: POSITIVE
Ionization: ESI
Collision energy: 0.3
Column name: Acquity CSHC18
Retention time: 11.214 min
Base peak: 257.0803
Precursor m/z: 257.0803
Precursor type: [M+H]+
Precursor intensity: 13973720
m/z	relative intensity
62.0512	8
69.4262	8
71.2865	9
75.0335	7
86.2114	8
93.9496	7
100.6301	7
103.0536	56
109.8449	8
125.7919	9
126.0222	8
131.0485	742
134.6415	8
138.5747	10
140.4166	11
144.2976	10
145.0643	36
147.0796	38
151.0386	46
151.4734	10
153.0177	999
154.2586	10
157.2763	9
159.8844	9
164.1714	8
166.952	24
173.0594	259
179.0332	78
180.8754	10
182.7303	11
188.7605	13
191.448	10
194.789	11
207.4282	10
210.868	9
214.2752	10
215.0699	174
229.0856	14
233.945	10
239.0707	21
239.6824	11
246.5283	10
248.7087	9
249.4199	12
249.8513	10
254.048	10
254.7347	10
255.2094	10
257.0778	37
257.2881	11
