Mass spectrum: 3-(2-hydroxyethylindole); ESI-TOF; MS2; CE: 0.6458333;  [M+H]+
Name: 3-(2-hydroxyethylindole)
Class: NA
Formula: C10H11NO
Exact mass: 161.08406
SMILES: c1ccc2c(c1)c(c[nH]2)CCO
InChI: InChI=1S/C10H11NO/c12-6-5-8-7-11-10-4-2-1-3-9(8)10/h1-4,7,11-12H,5-6H2
Instrument: waters xevo g2 TOF
Instrument type: ESI-TOF
Ms type: MS2
Ion mode: POSITIVE
Ionization: ESI
Collision energy: 0.6458333
Column name: Acquity CSHC18
Retention time: 2.286 min
Base peak: 162.09206
Precursor m/z: 162.09206
Precursor type: [M+H]+
m/z	relative intensity
91.055	35
103.0551	15
115.0542	97
116.0556	17
117.0693	195
118.0779	34
127.0548	97
128.0504	20
130.0655	212
131.0722	136
132.0805	44
142.0643	15
143.0733	203
144.0811	999
145.0842	122
160.0767	20
161.0819	6
162.0918	20
168.0104	21
170.0285	43
185.0351	8
185.9999	13
187.0082	163
188.0076	43
198.0224	132
200.0386	62
201.0254	14
203.0022	8
215.0035	11
216.032	15
217.0188	3
219.021	13
220.0268	3
246.0434	10
258.1143	9
303.1483	10
316.0651	35
319.1445	3
329.0756	12
335.1367	2
478.2124	8
