Mass spectrum: (-)-Bilobalide; LC-ESI-QFT; MS2; CE: 15,30,45 (NCE);  [2M+H]+
Name: (-)-Bilobalide
Class: NA
Formula: C15H18O8
Exact mass: 326.1002
SMILES: CC(C)(C)C1(O)CC2OC(=O)CC22C(=O)OC3OC(=O)C(O)C123
InChI: InChI=1S/C15H18O8/c1-12(2,3)14(20)4-6-13(5-7(16)21-6)10(19)23-11-15(13,14)8(17)9(18)22-11/h6,8,11,17,20H,4-5H2,1-3H3
Instrument: QE Focus, Thermo Scientfic; UPLC I-Class, Waters
Instrument type: LC-ESI-QFT
Ms type: MS2
Ion mode: POSITIVE
Ionization: ESI
Collision energy: 15,30,45 (NCE)
Column name: Acquity CSHC18
Retention time: 1.487 min
Base peak: 653.2090
Precursor m/z: 653.2090
Precursor type: [2M+H]+
Precursor intensity: 2040093
m/z	relative intensity
83.0702	433
133.083	586
175.0944	723
382.4023	999
