Mass spectrum: H-Phe-Ile-OH; LC-ESI-QTOF; MS2; CE: 31.11;  [2M-H]-
Name: H-Phe-Ile-OH
Class: NA
Formula: C15H22N2O3
Exact mass: 278.1630
SMILES: CCC(C)C(C(=O)O)NC(=O)C(CC1=CC=CC=C1)N
InChI: InChI=1S/C15H22N2O3/c1-3-10(2)13(15(19)20)17-14(18)12(16)9-11-7-5-4-6-8-11/h4-8,10,12-13H,3,9,16H2,1-2H3,(H,17,18)(H,19,20)
Instrument: Bruker MicrOTOF-Q
Instrument type: LC-ESI-QTOF
Ms type: MS2
Ion mode: NEGATIVE
Ionization: ESI
Collision energy: 31.11
Column name: Acquity CSHC18
Retention time: NA
Base peak: 555.3188
Precursor m/z: 555.3188
Precursor type: [2M-H]-
m/z	relative intensity
114.09	1
118.07	1
129.59	1
130.09	59
131.09	4
141.1	72
142.11	6
146.06	1
163.09	1
167.08	1
185.1	1
215.16	1
216.14	50
217.14	9
218.15	1
231.15	1
233.17	7
234.17	1
259.15	2
260.13	4
261.13	1
275.68	1
275.75	1
275.93	1
276.09	5
276.43	1
276.55	1
277.16	999
277.39	3
277.72	2
278.16	190
279.16	23
280.16	2
