Mass spectrum: ASPARAGINE; LC-ESI-QTOF; MS2; CE: 10;  [M-H]-
Name: ASPARAGINE
Class: NA
Formula: C4H8N2O3
Exact mass: 132.05349
SMILES: N[C@@H](CC(N)=O)C(O)=O
InChI: InChI=1S/C4H8N2O3/c5-2(4(8)9)1-3(6)7/h2H,1,5H2,(H2,6,7)(H,8,9)/t2-/m0/s1
Instrument: Agilent 6530Â Q-TOF LC/MS
Instrument type: LC-ESI-QTOF
Ms type: MS2
Ion mode: NEGATIVE
Ionization: ESI
Collision energy: 10
Column name: NA
Retention time: 0.200 min
Base peak: 131.04879
Precursor m/z: 131.04879
Precursor type: [M-H]-
Precursor intensity: 128
m/z	relative intensity
42.0147	177
58.0355	226
70.0424	239
71.0321	284
72.0165	291
95.0357	334
113.0508	467
114.0346	557
131.0554	999
