Mass spectrum: Resveratrol; LC-ESI-QTOF; MS2; CE: 50eV;  [M-H]-
Name: Resveratrol
Class: Stilbene
Formula: C14H12O3
Exact mass: 228.0786
SMILES: C1=CC(=CC=C1C=CC2=CC(=CC(=C2)O)O)O
InChI: InChI=1S/C14H12O3/c15-12-5-3-10(4-6-12)1-2-11-7-13(16)9-14(17)8-11/h1-9,15-17H
Instrument: TIMS-TOF Pro, Bruker Daltonik; Elute UHPLC System, Bruker Daltonik
Instrument type: LC-ESI-QTOF
Ms type: MS2
Ion mode: NEGATIVE
Ionization: ESI
Collision energy: 50eV
Column name: Acquity CSHC18
Retention time: 6.279 min
Base peak: 227.0689
Precursor m/z: 227.0689
Precursor type: [M-H]-
Precursor intensity: 36601
m/z	relative intensity
28.0157	4
34.6923	5
41.0035	79
58.3749	3
67.0102	6
69.0676	5
73.81	3
82.3316	4
91.2388	4
93.0337	39
105.035	4
111.8982	6
115.0525	98
115.2792	3
116.0575	11
117.0329	110
117.3162	3
118.0346	8
119.0474	58
120.049	3
122.1084	6
128.0631	5
130.0388	4
133.0206	3
141.0487	16
142.7222	3
143.0482	242
144.0494	10
145.0276	13
152.6482	3
156.0567	12
157.0629	22
158.0762	3
159.0789	34
160.0828	5
167.0434	7
180.0524	6
181.063	11
182.0722	20
183.0778	51
184.0819	8
185.0565	248
185.5609	4
186.0617	13
187.0588	3
225.0538	8
226.9525	4
227.0689	999
227.2852	3
227.3898	3
227.492	9
