Mass spectrum: Glucosamine 6-sulfate; ESI-TOF; MS2; CE: 0.6458333;  [M+H]+
Name: Glucosamine 6-sulfate
Class: NA
Formula: C6H13NO8S
Exact mass: 259.03619
SMILES: NC1C(O)OC(COS(O)(=O)=O)C(O)C1O
InChI: InChI=1S/C6H13NO8S/c7-3-5(9)4(8)2(15-6(3)10)1-14-16(11,12)13/h2-6,8-10H,1,7H2,(H,11,12,13)
Instrument: waters xevo g2 TOF
Instrument type: ESI-TOF
Ms type: MS2
Ion mode: POSITIVE
Ionization: ESI
Collision energy: 0.6458333
Column name: Acquity CSHC18
Retention time: 0.537 min
Base peak: 260.04419
Precursor m/z: 260.04419
Precursor type: [M+H]+
m/z	relative intensity
72.0456	622
84.0457	602
95.9733	47
96.9619	4
98.0607	170
99.9697	241
111.9683	4
113.9645	4
114.9485	92
130.0084	4
130.0097	4
138.9905	4
138.9909	4
141.9592	273
144.0672	267
154.9681	4
162.0767	999
172.9776	88
180.0874	585
202.0646	4
232.9994	4
236.9401	4
242.0336	387
243.0345	25
244.0319	4
260.0442	72
261.0471	4
279.0062	4
297.9898	4
354.9873	4
439.1236	178
440.1249	4
441.1292	4
571.9989	13
573.0015	4
698.1588	56
778.1132	4
