Mass spectrum: Sclareol; LC-ESI-QTOF; MS2; CE: 17.34;  [M+Na]+
Name: Sclareol
Class: NA
Formula: C20H36O2
Exact mass: 308.2715
SMILES: CC1(CCCC2(C1CCC(C2CCC(C)(C=C)O)(C)O)C)C
InChI: InChI=1S/C20H36O2/c1-7-18(4,21)13-9-16-19(5)12-8-11-17(2,3)15(19)10-14-20(16,6)22/h7,15-16,21-22H,1,8-14H2,2-6H3
Instrument: Bruker MicrOTOF-Q
Instrument type: LC-ESI-QTOF
Ms type: MS2
Ion mode: POSITIVE
Ionization: ESI
Collision energy: 17.34
Column name: Acquity CSHC18
Retention time: NA
Base peak: 331.2607
Precursor m/z: 331.2607
Precursor type: [M+Na]+
m/z	relative intensity
177.17	2
217.19	4
273.27	3
329.69	2
330.88	3
331.08	4
331.26	999
331.62	5
331.73	3
331.87	6
332.26	211
332.45	3
332.69	2
333.27	12
333.38	3
334.73	2
366.74	2
381.62	2
543.26	3
663.44	2
