Mass spectrum: L-TRYPTOPHANAMIDE; LC-ESI-QTOF; MS2; CE: 20;  [M+H]+
Name: L-TRYPTOPHANAMIDE
Class: NA
Formula: C11H13N3O
Exact mass: 203.10586
SMILES: NC(CC1=CNC2=CC=CC=C12)C(N)=O
InChI: InChI=1S/C11H13N3O/c12-9(11(13)15)5-7-6-14-10-4-2-1-3-8(7)10/h1-4,6,9,14H,5,12H2,(H2,13,15)
Instrument: Agilent 6530Â Q-TOF LC/MS
Instrument type: LC-ESI-QTOF
Ms type: MS2
Ion mode: POSITIVE
Ionization: ESI
Collision energy: 20
Column name: NA
Retention time: 0.200 min
Base peak: 204.11661
Precursor m/z: 204.11661
Precursor type: [M+H]+
Precursor intensity: 145.5
m/z	relative intensity
44.0275	22
51.0239	23
55.0381	24
66.0363	24
73.0501	26
77.0514	26
81.0511	26
83.0889	26
89.0402	26
90.0516	28
91.0688	29
92.0559	29
93.0594	30
102.0743	31
103.0732	34
104.0501	34
105.0786	37
106.0708	38
115.0814	40
116.0674	42
117.0977	46
117.4888	46
118.1046	46
119.0782	48
127.0757	51
128.0661	59
129.0571	61
130.1778	61
130.7325	63
131.0768	69
132.4383	75
132.9766	75
133.1121	79
134.0627	79
140.0607	81
142.1524	102
142.3763	107
142.6466	114
142.7185	120
143.1056	140
143.4451	174
144.3077	253
144.6937	260
144.874	389
145.1963	394
145.5913	438
145.7504	459
157.0706	566
158.0958	601
159.5754	668
160.2868	698
170.0973	772
187.1232	999
