Mass spectrum: lanostenol; ESI-TOF; MS2; CE: 6.0000000;  [M+H]+
Name: lanostenol
Class: NA
Formula: C30H52O
Exact mass: 428.40182
SMILES: [H]OC2([H])(C([H])([H])C([H])([H])C1(C3=C(C([H])([H])C([H])([H])C1([H])C2(C([H])([H])[H])(C([H])([H])[H]))C4(C([H])([H])[H])(C([H])([H])C([H])([H])C([H])(C([H])(C([H])([H])[H])C([H])([H])C([H])([H])C([H])([H])C([H])(C([H])([H])[H])C([H])([H])[H])C4(C([H])([H])[H])(C([H])([H])C3([H])([H]))))(C([H])([H])[H]))
InChI: InChI=1S/C30H52O/c1-20(2)10-9-11-21(3)22-14-18-30(8)24-12-13-25-27(4,5)26(31)16-17-28(25,6)23(24)15-19-29(22,30)7/h20-22,25-26,31H,9-19H2,1-8H3
Instrument: waters xevo g2 TOF
Instrument type: ESI-TOF
Ms type: MS2
Ion mode: POSITIVE
Ionization: ESI
Collision energy: 6.0000000
Column name: Acquity CSHC18
Retention time: 11.533 min
Base peak: 429.40982
Precursor m/z: 429.40982
Precursor type: [M+H]+
m/z	relative intensity
123.1173	3
129.9803	8
173.9628	11
191.1799	52
192.184	7
193.1938	3
202.0953	7
203.1811	11
205.1956	13
214.9172	14
217.1959	17
218.1976	1
282.053	7
283.0536	3
299.2725	11
323.2247	7
331.2159	19
371.263	6
371.7661	27
387.1708	13
395.3669	3
401.1439	5
405.3045	7
411.3988	999
412.4022	348
413.3913	51
415.0345	3
428.4018	94
429.4041	12
