Mass spectrum: N-FORMYL-L-METHIONINE; LC-ESI-QTOF; MS2; CE: 40;  [M-H]-
Name: N-FORMYL-L-METHIONINE
Class: NA
Formula: C6H11NO3S
Exact mass: 177.04596
SMILES: CSCC[C@H](NC=O)C(O)=O
InChI: InChI=1S/C6H11NO3S/c1-11-3-2-5(6(9)10)7-4-8/h4-5H,2-3H2,1H3,(H,7,8)(H,9,10)/t5-/m0/s1
Instrument: Agilent 6530Â Q-TOF LC/MS
Instrument type: LC-ESI-QTOF
Ms type: MS2
Ion mode: NEGATIVE
Ionization: ESI
Collision energy: 40
Column name: NA
Retention time: 0.200 min
Base peak: 176.04151
Precursor m/z: 176.04151
Precursor type: [M-H]-
Precursor intensity: 103
m/z	relative intensity
47.0118	999
