Mass spectrum: gnetin H; LC-ESI-ITFT; MS2; CE: 0.3;  [M+H]+
Name: gnetin H
Class: stilbenes
Formula: C42H32O9
Exact mass: 680.2046
SMILES: C1=CC(=CC=C1C=CC2=C3C(C(OC3=CC4=C2C(C(O4)C5=CC=C(C=C5)O)C6=CC(=CC(=C6)O)O)C7=CC=C(C=C7)O)C8=CC(=CC(=C8)O)O)O
InChI: InChI=1S/C42H32O9/c43-27-8-1-22(2-9-27)3-14-34-39-35(50-41(23-4-10-28(44)11-5-23)37(39)25-15-30(46)19-31(47)16-25)21-36-40(34)38(26-17-32(48)20-33(49)18-26)42(51-36)24-6-12-29(45)13-7-24/h1-21,37-38,41-49H
Instrument: LTQ-Orbitrap XL hybrid mass spectrometer (Thermo Scientific)
Instrument type: LC-ESI-ITFT
Ms type: MS2
Ion mode: POSITIVE
Ionization: ESI
Collision energy: 0.3
Column name: Acquity CSHC18
Retention time: 9.004 min
Base peak: 681.2088
Precursor m/z: 681.2088
Precursor type: [M+H]+
Precursor intensity: 2889285
m/z	relative intensity
199.0747	19
215.0694	65
215.2467	7
235.0071	8
239.0704	11
250.8983	7
261.727	8
305.6815	7
312.7984	7
318.948	8
319.3707	8
329.082	10
331.0925	13
334.166	8
336.9606	7
341.0721	10
343.0948	17
345.073	12
345.111	14
347.0898	101
349.1043	14
349.5398	10
356.7159	10
359.0911	90
364.277	11
371.0884	21
387.0831	15
387.4018	9
388.4224	9
389.1947	8
391.5119	8
393.2773	12
397.2642	11
406.3696	9
423.4323	9
435.1219	83
435.2782	11
441.1325	20
444.7967	10
447.6763	12
448.8463	9
448.9616	9
451.1148	40
453.1322	127
454.1323	12
455.9027	10
463.1178	55
465.1294	47
467.1338	18
468.4692	10
469.1256	31
470.2794	9
472.8532	9
475.1158	58
475.3613	11
477.1316	42
479.1121	24
480.1114	15
481.1257	146
482.1061	10
485.1263	9
491.6812	10
493.1257	185
493.3606	12
496.5688	9
498.0317	10
505.1874	9
507.1447	11
510.299	10
514.2856	10
521.4322	8
523.1688	10
524.4918	9
532.9791	13
535.9252	9
536.5626	9
540.4279	10
541.1525	14
551.1445	45
557.1573	140
558.1592	20
559.1832	12
563.6388	11
569.1574	198
571.1721	48
573.1517	36
574.1581	76
575.1675	984
587.1673	999
596.3779	10
600.8903	10
603.5824	10
604.4042	12
606.5773	11
610.0914	9
627.2629	13
640.3937	10
645.1874	14
663.2	169
666.8875	11
669.276	12
