Mass spectrum: Coumaroyl,Caffeoyl-spermidine; LC-ESI-QTOF; MS2; CE: 35eV;  [M+H]+
Name: Coumaroyl,Caffeoyl-spermidine
Class: Phenolic-polyamine conjugate
Formula: C25H31N3O5
Exact mass: 453.2264
SMILES: Oc1ccc(/C=C/C(=O)NCCCCNCCCNC(=O)/C=C/c2ccc(O)cc2)cc1O
InChI: InChI=1S/C25H31N3O5/c29-21-9-4-19(5-10-21)7-12-24(32)28-17-3-15-26-14-1-2-16-27-25(33)13-8-20-6-11-22(30)23(31)18-20/h4-13,18,26,29-31H,1-3,14-17H2,(H,27,33)(H,28,32)/b12-7+,13-8+
Instrument: Impact II qTOF
Instrument type: LC-ESI-QTOF
Ms type: MS2
Ion mode: POSITIVE
Ionization: ESI
Collision energy: 35eV
Column name: Acquity CSH C18 column (particle size 1.7 μm, column length 2.1 × 50 mm) (Waters)
Retention time: 8.61 min
Base peak: 454.2327
Precursor m/z: 454.2327
Precursor type: [M+H]+
m/z	relative intensity
147.044	797
163.0391	999
204.1022	739
220.0972	254
222.113	269
234.1124	81
275.1755	101
292.2036	216
308.1964	365
454.2327	50
