Mass spectrum: Adenine; LC-ESI-QTOF; MS2; CE: 30;  [M-H]-
Name: Adenine
Class: NA
Formula: C5H5N5
Exact mass: 135.0545
SMILES: C1=NC2=NC=NC(=C2N1)N
InChI: InChI=1S/C5H5N5/c6-4-3-5(9-1-7-3)10-2-8-4/h1-2H,(H3,6,7,8,9,10)
Instrument: impact II
Instrument type: LC-ESI-QTOF
Ms type: MS2
Ion mode: NEGATIVE
Ionization: ESI
Collision energy: 30
Column name: Acquity CSHC18
Retention time: 1.920 min
Base peak: 134.0470
Precursor m/z: 134.0470
Precursor type: [M-H]-
m/z	relative intensity
90.0098	157
92.0255	576
99.9256	161
106.0284	149
107.0362	999
117.0204	150
134.0471	388
