Mass spectrum: salycylic acid; LC-ESI-QFT; MS2; CE: NCE_15_30_51;  [M-H]-
Name: salycylic acid
Class: NA
Formula: C7H6O3
Exact mass: 138.0317
SMILES: C1=CC=C(C(=C1)C(=O)O)O
InChI: InChI=1S/C7H6O3/c8-6-4-2-1-3-5(6)7(9)10/h1-4,8H,(H,9,10)
Instrument: Thermo_Qexactive_Plus
Instrument type: LC-ESI-QFT
Ms type: MS2
Ion mode: NEGATIVE
Ionization: ESI
Collision energy: NCE_15_30_51
Column name: Acquity CSHC18
Retention time: 4.400 min
Base peak: 137.0233
Precursor m/z: 137.0233
Precursor type: [M-H]-
Precursor intensity: 1608050000
m/z	relative intensity
50.9883	16
57.4939	17
71.6416	18
73.5461	18
75.0994	20
83.0122	22
93.0336	79
94.0369	315
137.0241	999
