Mass spectrum: FeruloylPutrescine; LC-ESI-ITFT; MS2; CE: 35eV;  [M+H]+
Name: FeruloylPutrescine
Class: Phenolamide
Formula: C14H20N2O3
Exact mass: 264.1474
SMILES: COC1=C(C=CC(=C1)C=CC(=O)NCCCCN)O
InChI: InChI=1S/C14H20N2O3/c1-19-13-10-11(4-6-12(13)17)5-7-14(18)16-9-3-2-8-15/h4-7,10,17H,2-3,8-9,15H2,1H3,(H,16,18)
Instrument: LTQ Orbitrap XL, Thermo Scientfic; Dionex Ultimate 300
Instrument type: LC-ESI-ITFT
Ms type: MS2
Ion mode: POSITIVE
Ionization: ESI
Collision energy: 35eV
Column name: Kinetex XB C18 150*2,1 2,6 Âµm, Phenomenex
Retention time: 8.53 min
Base peak: 265.1509
Precursor m/z: 265.1509
Precursor type: [M+H]+
m/z	relative intensity
88.9844	33
97.9842	19
109.9501	1
113.9434	88
114.9313	58
124.9259	1
136.8651	6
144.9803	7
151.9626	60
176.8977	749
191.046	1
194.0128	1
206.0311	158
223.1783	8
248.057	999
