Mass spectrum: Adenosine; LC-ESI-QTOF; MS2; CE: 15.00;  [M+H]+
Name: Adenosine
Class: NA
Formula: C10H13N5O4
Exact mass: 267.0968
SMILES: C1=NC(=C2C(=N1)N(C=N2)C3C(C(C(O3)CO)O)O)N
InChI: InChI=1S/C10H13N5O4/c11-8-5-9(13-2-12-8)15(3-14-5)10-7(18)6(17)4(1-16)19-10/h2-4,6-7,10,16-18H,1H2,(H2,11,12,13)
Instrument: Bruker MicrOTOF-Q
Instrument type: LC-ESI-QTOF
Ms type: MS2
Ion mode: POSITIVE
Ionization: ESI
Collision energy: 15.00
Column name: Acquity CSHC18
Retention time: NA
Base peak: 268.1040
Precursor m/z: 268.1040
Precursor type: [M+H]+
m/z	relative intensity
119.0317	17
136.0652	22
137.0614	181
268.1036	211
269.1061	999
