Mass spectrum: N-Butyryl-L-homoserine lactone; LC-ESI-ITFT; MS2; CE: 60;  [M+H]+
Name: N-Butyryl-L-homoserine lactone
Class: NA
Formula: C8H13NO3
Exact mass: 171.08954
SMILES: CCCC(=O)N[C@H]1CCOC1=O
InChI: InChI=1S/C8H13NO3/c1-2-3-7(10)9-6-4-5-12-8(6)11/h6H,2-5H2,1H3,(H,9,10)/t6-/m0/s1
Instrument: Thermo Scientific Q-Exactive Focus
Instrument type: LC-ESI-ITFT
Ms type: MS2
Ion mode: POSITIVE
Ionization: ESI
Collision energy: 60
Column name: Acquity CSHC18
Retention time: 2.018 min
Base peak: 172.09682
Precursor m/z: 172.09682
Precursor type: [M+H]+
m/z	relative intensity
53.0027	738
56.05	999
63.5652	262
65.5688	298
68.7631	250
69.3978	291
75.2018	253
89.6475	264
171.9024	250
179.5638	252
