Mass spectrum: Prostaglandin E2 Ethanolamide; ESI-TOF; MS2; CE: 0.6458333;  [M+H]+
Name: Prostaglandin E2 Ethanolamide
Class: NA
Formula: C22H37NO5
Exact mass: 395.26717
SMILES: CCCCC[C@H](O)\C=C\[C@H]1[C@@H](O)CC(=O)[C@@H]1C\C=C/CCCC(=O)NCCO
InChI: InChI=1S/C22H37NO5/c1-2-3-6-9-17(25)12-13-19-18(20(26)16-21(19)27)10-7-4-5-8-11-22(28)23-14-15-24/h4,7,12-13,17-19,21,24-25,27H,2-3,5-6,8-11,14-16H2,1H3,(H,23,28)/b7-4-,13-12+/t17-,18+,19+,21-/m0/s1
Instrument: waters xevo g2 TOF
Instrument type: ESI-TOF
Ms type: MS2
Ion mode: POSITIVE
Ionization: ESI
Collision energy: 0.6458333
Column name: Acquity CSHC18
Retention time: 3.169 min
Base peak: 396.27517
Precursor m/z: 396.27517
Precursor type: [M+H]+
m/z	relative intensity
62.06	163
67.0535	52
79.0546	70
81.0708	135
91.055	60
93.0715	102
95.086	46
97.0648	30
105.0715	168
107.0866	54
109.0646	36
117.0715	95
119.0868	116
121.1019	95
123.0812	41
126.0946	21
128.0255	29
129.0705	96
131.0859	154
133.1016	90
135.0816	50
143.0868	38
145.1029	148
147.0819	99
149.0966	59
152.1088	62
157.1027	86
159.081	126
161.1331	108
163.1118	37
169.1009	84
171.1169	80
173.097	89
175.1486	26
177.1284	22
183.1169	80
185.0977	68
186.5968	2
187.1134	67
189.0932	42
191.1437	34
193.1002	26
195.0341	21
197.1325	71
199.113	24
199.6038	2
201.128	49
203.143	81
204.1863	20
208.6093	2
211.1111	56
213.1629	15
215.1438	243
216.1446	29
225.0879	61
227.1794	108
228.0496	18
229.1966	103
237.1623	23
239.1803	93
245.19	211
246.1957	32
255.1759	66
257.1911	103
263.1786	51
271.2049	80
273.1857	111
275.2768	22
281.1891	192
282.1934	47
288.2297	43
289.2176	18
290.2482	42
294.0977	2
299.2022	450
300.2051	84
306.2419	76
308.2582	68
309.2614	9
316.227	146
332.2586	64
334.2382	49
335.2417	2
342.2429	999
343.2403	286
344.2394	14
350.269	14
360.2537	836
361.2572	198
362.2607	24
368.178	27
378.2643	246
379.2687	54
380.2723	2
381.2698	2
396.2178	10
397.2511	9
398.2	141
