Mass spectrum: 1,2-dibehenoyl-sn-glycero-3-phosphocholine; ESI-TOF; MS2; CE: 0.6458333;  [M+H]+
Name: 1,2-dibehenoyl-sn-glycero-3-phosphocholine
Class: NA
Formula: C52H104NO8P
Exact mass: 901.74996
SMILES: [H]C([H])([H])C([H])([H])C([H])([H])C([H])([H])C([H])([H])C([H])([H])C([H])([H])C([H])([H])C([H])([H])C([H])([H])C([H])([H])C([H])([H])C([H])([H])C([H])([H])C([H])([H])C([H])([H])C([H])([H])C([H])([H])C([H])([H])C([H])([H])C([H])([H])C(=O)OC([H])([H])C([H])(OC(=O)C([H])([H])C([H])([H])C([H])([H])C([H])([H])C([H])([H])C([H])([H])C([H])([H])C([H])([H])C([H])([H])C([H])([H])C([H])([H])C([H])([H])C([H])([H])C([H])([H])C([H])([H])C([H])([H])C([H])([H])C([H])([H])C([H])([H])C([H])([H])C([H])([H])[H])C([H])([H])OP(=O)([O-])OC([H])([H])C([H])([H])[N+](C([H])([H])[H])(C([H])([H])[H])C([H])([H])[H]
InChI: InChI=1S/C52H104NO8P/c1-6-8-10-12-14-16-18-20-22-24-26-28-30-32-34-36-38-40-42-44-51(54)58-48-50(49-60-62(56,57)59-47-46-53(3,4)5)61-52(55)45-43-41-39-37-35-33-31-29-27-25-23-21-19-17-15-13-11-9-7-2/h50H,6-49H2,1-5H3
Instrument: waters xevo g2 TOF
Instrument type: ESI-TOF
Ms type: MS2
Ion mode: POSITIVE
Ionization: ESI
Collision energy: 0.6458333
Column name: Acquity CSHC18
Retention time: 13.466 min
Base peak: 902.75796
Precursor m/z: 902.75796
Precursor type: [M+H]+
m/z	relative intensity
97.9693	20
129.9801	1
156.8901	20
184.074	565
184.0741	46
185.0759	17
295.1951	30
295.1953	36
379.2893	463
503.3511	16
562.4238	648
563.429	123
719.6928	194
720.6952	87
721.7007	19
741.6742	14
865.6661	35
866.6762	24
902.7533	19
902.7552	23
902.7577	999
903.7614	536
904.7634	165
921.7335	146
922.2335	164
922.732	98
923.2374	40
924.7403	419
925.7429	360
926.7461	98
930.2144	15
940.7081	14
986.7096	180
987.2127	60
987.7154	38
992.7242	16
993.7227	10
994.6999	33
995.2021	36
995.7012	22
1002.6812	16
1003.6846	22
