Mass spectrum: (+)-Catechin; LC-ESI-QTOF; MS2; CE: 15;  [M-H2O-H]-
Name: (+)-Catechin
Class: NA
Formula: C15H16O7
Exact mass: 308.0896
SMILES: C1C(C(OC2=CC(=CC(=C21)O)O)C3=CC(=C(C=C3)O)O)O.O
InChI: InChI=1S/C15H14O6.H2O/c16-8-4-11(18)9-6-13(20)15(21-14(9)5-8)7-1-2-10(17)12(19)3-7;/h1-5,13,15-20H,6H2;1H2
Instrument: Bruker MicrOTOF-Q
Instrument type: LC-ESI-QTOF
Ms type: MS2
Ion mode: NEGATIVE
Ionization: ESI
Collision energy: 15
Column name: Acquity CSHC18
Retention time: NA
Base peak: 289.0718
Precursor m/z: 289.0718
Precursor type: [M-H2O-H]-
m/z	relative intensity
97.0202	14
108.0231	25
109.03	348
110.0334	26
121.0264	65
122.038	16
123.0442	198
125.0247	252
137.0217	143
138.0305	13
139.0379	36
145.0322	25
146.0377	18
149.0244	80
151.0397	125
152.0415	15
157.0698	13
159.0442	19
160.0591	21
161.0616	62
162.0326	35
163.0425	28
164.0139	41
165.0191	69
167.0384	14
175.0652	39
179.0335	111
185.0627	23
187.0389	226
188.047	195
189.0519	27
199.0738	33
201.0609	47
202.061	191
203.07	999
204.072	89
204.9641	286
206.0514	72
212.0479	36
213.0511	18
217.086	70
221.0795	472
222.0841	53
227.0702	158
228.0747	16
229.0514	18
230.055	31
231.0297	16
245.0133	325
246.0863	121
247.0649	73
271.0532	39
289.0699	431
290.0739	41
