Mass spectrum: quercetin 3,7,3'-trimethylether; LC-ESI-ITFT; MS2; CE: 0.3;  [M-H]-
Name: quercetin 3,7,3'-trimethylether
Class: flavonols
Formula: C18H16O7
Exact mass: 344.0896
SMILES: COC1=CC(=C2C(=C1)OC(=C(C2=O)OC)C3=CC(=C(C=C3)O)OC)O
InChI: InChI=1S/C18H16O7/c1-22-10-7-12(20)15-14(8-10)25-17(18(24-3)16(15)21)9-4-5-11(19)13(6-9)23-2/h4-8,19-20H,1-3H3
Instrument: LTQ-Orbitrap XL hybrid mass spectrometer (Thermo Scientific)
Instrument type: LC-ESI-ITFT
Ms type: MS2
Ion mode: NEGATIVE
Ionization: ESI
Collision energy: 0.3
Column name: Acquity CSHC18
Retention time: 12.017 min
Base peak: 343.0818
Precursor m/z: 343.0818
Precursor type: [M-H]-
Precursor intensity: 5178745
m/z	relative intensity
83.2079	2
88.6381	2
98.7299	2
101.6679	2
106.3312	2
128.2723	2
128.7876	2
135.9879	3
145.1692	2
155.5111	3
156.6806	2
158.4334	2
165.9149	2
167.0158	6
168.8227	3
169.171	3
169.6575	2
171.6492	3
172.3196	3
174.5258	2
177.1739	2
182.2443	3
182.4757	2
183.81	3
189.0161	3
191.0353	2
197.4399	2
199.6397	3
211.9982	3
215.176	3
215.4879	3
216.3545	3
216.9773	3
217.6854	3
219.5701	5
229.1114	2
230.6367	3
230.8585	2
241.1175	4
243.9809	4
244.8113	3
246.3957	3
248.5089	4
251.0009	3
251.3158	3
253.2772	4
253.4248	3
254.6596	3
254.8765	3
256.3861	3
259.5288	3
259.9093	3
260.9917	3
261.3287	3
261.7673	3
263.4902	3
264.3694	3
265.1675	4
266.3721	3
266.6249	3
266.6766	3
267.1814	4
267.3764	3
269.6765	4
271.2326	4
271.9112	4
273.3517	4
276.4715	3
277.3119	4
278.257	3
278.2855	3
281.2257	3
281.611	3
281.6923	3
282.427	3
285.9801	4
287.043	4
288.4205	4
289.2398	4
289.7165	4
290.2177	3
293.3875	3
295.2401	3
295.5378	3
295.9458	4
297.8015	3
297.8304	3
298.9029	3
301.4626	3
302.7927	3
304.3903	4
305.1404	5
306.4444	4
307.1522	3
308.1818	3
310.2107	4
311.8707	3
313.0331	10
313.6462	4
317.4888	3
319.607	3
319.8536	4
321.3332	4
323.8005	4
324.7197	4
324.8418	3
325.4898	4
328.0584	999
329.2017	4
329.78	4
332.4738	4
332.9889	3
334.497	3
334.9991	3
336.2236	4
337.6139	3
338.4715	3
341.0428	4
343.1375	3
