Mass spectrum: 18:0-22:6 DG; ESI-TOF; MS2; CE: 0.6458333;  [M+H]+
Name: 18:0-22:6 DG
Class: NA
Formula: C43H72O5
Exact mass: 668.53798
SMILES: [H]OC([H])([H])C([H])(OC(=O)C([H])([H])C([H])([H])C([H])=C([H])C([H])([H])C([H])=C([H])C([H])([H])C([H])=C([H])C([H])([H])C([H])=C([H])C([H])([H])C([H])=C([H])C([H])([H])C([H])=C([H])C([H])([H])C([H])([H])[H])C([H])([H])OC(=O)C([H])([H])C([H])([H])C([H])([H])C([H])([H])C([H])([H])C([H])([H])C([H])([H])C([H])([H])C([H])([H])C([H])([H])C([H])([H])C([H])([H])C([H])([H])C([H])([H])C([H])([H])C([H])([H])C([H])([H])[H]
InChI: InChI=1S/C43H72O5/c1-3-5-7-9-11-13-15-17-19-20-21-22-24-26-28-30-32-34-36-38-43(46)48-41(39-44)40-47-42(45)37-35-33-31-29-27-25-23-18-16-14-12-10-8-6-4-2/h5,7,11,13,17,19,21-22,26,28,32,34,41,44H,3-4,6,8-10,12,14-16,18,20,23-25,27,29-31,33,35-40H2,1-2H3
Instrument: waters xevo g2 TOF
Instrument type: ESI-TOF
Ms type: MS2
Ion mode: POSITIVE
Ionization: ESI
Collision energy: 0.6458333
Column name: Acquity CSHC18
Retention time: 12.294 min
Base peak: 669.54598
Precursor m/z: 669.54598
Precursor type: [M+H]+
m/z	relative intensity
69.0701	21
71.0859	51
73.0471	32
79.055	23
81.0704	83
83.0858	39
85.1017	73
91.0542	40
93.0704	45
95.0859	135
97.1015	67
105.07	36
107.0866	32
109.1013	95
111.1162	29
117.0694	40
119.0853	48
121.1014	42
123.1172	48
129.069	21
131.0298	25
133.1011	43
135.1169	19
137.1319	24
141.0699	11
143.086	22
145.1012	45
147.0912	27
149.0889	13
156.9954	18
159.1166	37
161.1317	35
163.1488	16
169.1013	19
171.1168	36
173.1324	31
175.1478	25
181.101	10
184.0737	30
185.1316	25
187.1476	17
188.9192	12
195.117	11
197.1331	17
199.1506	22
201.1633	30
207.0334	20
211.1483	29
213.1627	36
215.1806	23
221.0834	32
223.1503	12
227.1804	47
229.1587	10
237.1629	14
251.0976	15
267.134	27
269.2274	39
281.053	17
283.2396	21
285.2795	26
293.2259	160
294.2297	36
311.2373	314
312.2404	72
319.1945	18
323.2263	67
335.1667	10
341.162	598
342.1646	143
343.312	31
351.2292	78
352.2326	20
353.0656	40
353.5653	19
355.0693	65
356.0684	18
357.0654	11
365.148	11
367.1948	341
368.1977	78
383.1677	105
384.1706	43
385.2743	211
386.2778	57
407.2546	54
408.2588	11
423.2202	30
424.2227	9
429.0893	125
430.09	48
431.088	35
432.0842	6
496.2679	27
537.3971	25
603.5327	12
609.4004	13
617.5117	18
644.5323	47
651.5359	999
652.5392	492
653.5425	128
654.5463	20
664.4583	56
665.4595	11
669.5467	364
670.5496	179
