Mass spectrum: N-ACETYLSERINE; LC-ESI-QTOF; MS2; CE: 10;  [M-H]-
Name: N-ACETYLSERINE
Class: NA
Formula: C5H9NO4
Exact mass: 147.05316
SMILES: CC(=O)N[C@@H](CO)C(O)=O
InChI: InChI=1S/C5H9NO4/c1-3(8)6-4(2-7)5(9)10/h4,7H,2H2,1H3,(H,6,8)(H,9,10)/t4-/m0/s1
Instrument: Agilent 6530Â Q-TOF LC/MS
Instrument type: LC-ESI-QTOF
Ms type: MS2
Ion mode: NEGATIVE
Ionization: ESI
Collision energy: 10
Column name: NA
Retention time: 0.200 min
Base peak: 146.04894
Precursor m/z: 146.04894
Precursor type: [M-H]-
Precursor intensity: 114
m/z	relative intensity
40.0199	113
41.0146	229
42.0235	257
57.0414	307
72.0535	320
74.0457	457
84.0593	459
98.0374	511
104.0401	556
116.0486	574
146.0559	999
