Mass spectrum: Acetylcysteine; LC-ESI-ITFT; MS2; CE: 40;  [M+H]+
Name: Acetylcysteine
Class: Organic acids and derivatives; Carboxylic acids and derivatives; Amino acids, peptides, and analogues
Formula: C5H9NO3S
Exact mass: 163.03031
SMILES: CC(=O)N[C@@H](CS)C(O)=O
InChI: InChI=1S/C5H9NO3S/c1-3(7)6-4(2-10)5(8)9/h4,10H,2H2,1H3,(H,6,7)(H,8,9)/t4-/m0/s1
Instrument: Thermo Scientific Q-Exactive Focus
Instrument type: LC-ESI-ITFT
Ms type: MS2
Ion mode: POSITIVE
Ionization: ESI
Collision energy: 40
Column name: Acquity CSHC18
Retention time: 1.463 min
Base peak: 164.03758
Precursor m/z: 164.03758
Precursor type: [M+H]+
m/z	relative intensity
57.9877	63
58.9955	999
59.9949	6
76.0219	171
84.262	6
103.92	6
108.7408	5
174.5448	7
179.0847	6
182.7707	6
