Mass spectrum: 1-stearoyl-2-arachidonoyl-sn-glycero-3-phosphoethanolamine; ESI-TOF; MS2; CE: 0.6458333;  [M+H]+
Name: 1-stearoyl-2-arachidonoyl-sn-glycero-3-phosphoethanolamine
Class: NA
Formula: C43H78NO8P
Exact mass: 767.54651
SMILES: [H]C(=C([H])C([H])([H])C([H])=C([H])C([H])([H])C([H])([H])C([H])([H])C(=O)OC([H])(C([H])([H])OC(=O)C([H])([H])C([H])([H])C([H])([H])C([H])([H])C([H])([H])C([H])([H])C([H])([H])C([H])([H])C([H])([H])C([H])([H])C([H])([H])C([H])([H])C([H])([H])C([H])([H])C([H])([H])C([H])([H])C([H])([H])[H])C([H])([H])OP(=O)([O-])OC([H])([H])C([H])([H])[N+]([H])([H])[H])C([H])([H])C([H])=C([H])C([H])([H])C([H])=C([H])C([H])([H])C([H])([H])C([H])([H])C([H])([H])C([H])([H])[H]
InChI: InChI=1S/C43H78NO8P/c1-3-5-7-9-11-13-15-17-19-20-22-24-26-28-30-32-34-36-43(46)52-41(40-51-53(47,48)50-38-37-44)39-49-42(45)35-33-31-29-27-25-23-21-18-16-14-12-10-8-6-4-2/h11,13,17,19,22,24,28,30,41H,3-10,12,14-16,18,20-21,23,25-27,29,31-40,44H2,1-2H3,(H,47,48)
Instrument: waters xevo g2 TOF
Instrument type: ESI-TOF
Ms type: MS2
Ion mode: POSITIVE
Ionization: ESI
Collision energy: 0.6458333
Column name: Acquity CSHC18
Retention time: 11.396 min
Base peak: 768.55451
Precursor m/z: 768.55451
Precursor type: [M+H]+
m/z	relative intensity
203.1815	11
269.2255	6
330.2791	7
341.3056	206
342.3092	28
343.2526	20
344.1981	11
359.1683	5
459.2192	11
479.1856	10
537.3945	6
566.4291	4
605.5514	55
606.5526	21
627.5342	999
628.5377	473
629.5443	67
630.5495	12
649.5167	9
650.5185	5
741.4747	4
746.5695	3
747.4859	10
763.4571	67
764.4592	30
765.4672	8
768.5526	223
769.5564	107
