Mass spectrum: Hypoxanthine; LC-ESI-QTOF; MS2; CE: 10;  [M+H2O+H]+
Name: Hypoxanthine
Class: NA
Formula: C4H4O4
Exact mass: 116.0110
SMILES: C(=CC(=O)O)C(=O)O
InChI: InChI=1S/C4H4O4/c5-3(6)1-2-4(7)8/h1-2H,(H,5,6)(H,7,8)
Instrument: impact II
Instrument type: LC-ESI-QTOF
Ms type: MS2
Ion mode: NEGATIVE
Ionization: ESI
Collision energy: 10
Column name: Acquity CSHC18
Retention time: 1.910 min
Base peak: 135.0310
Precursor m/z: 135.0310
Precursor type: [M+H2O+H]+
m/z	relative intensity
92.0253	905
135.0311	999
