Mass spectrum: 5-Hydroxymethyl-2-furancarboxaldehyde; LC-ESI-ITFT; MS2; CE: 10;  [M+H]+
Name: 5-Hydroxymethyl-2-furancarboxaldehyde
Class: Organooxygen compounds; Carbonyl compounds; Aldehydes
Formula: C6H6O3
Exact mass: 126.03169
SMILES: OCC1=CC=C(O1)C=O
InChI: InChI=1S/C6H6O3/c7-3-5-1-2-6(4-8)9-5/h1-3,8H,4H2
Instrument: Thermo Scientific Q-Exactive Focus
Instrument type: LC-ESI-ITFT
Ms type: MS2
Ion mode: POSITIVE
Ionization: ESI
Collision energy: 10
Column name: Acquity CSHC18
Retention time: 0.348 min
Base peak: 127.03897
Precursor m/z: 127.03897
Precursor type: [M+H]+
m/z	relative intensity
53.0392	44
71.0496	4
81.0339	286
81.0703	4
85.0513	8
86.0604	3
109.0287	999
109.065	4
127.0391	89
127.0728	94
