Mass spectrum: Adenosine 5'-monophosphate; LC-ESI-QTOF; MS2; CE: 18.61;  [M+H]+
Name: Adenosine 5'-monophosphate
Class: NA
Formula: C10H14N5O7P
Exact mass: 347.0631
SMILES: C1=NC(=C2C(=N1)N(C=N2)C3C(C(C(O3)COP(=O)(O)O)O)O)N
InChI: InChI=1S/C10H14N5O7P/c11-8-5-9(13-2-12-8)15(3-14-5)10-7(17)6(16)4(22-10)1-21-23(18,19)20/h2-4,6-7,10,16-17H,1H2,(H2,11,12,13)(H2,18,19,20)
Instrument: Bruker MicrOTOF-Q
Instrument type: LC-ESI-QTOF
Ms type: MS2
Ion mode: POSITIVE
Ionization: ESI
Collision energy: 18.61
Column name: Acquity CSHC18
Retention time: NA
Base peak: 348.0704
Precursor m/z: 348.0704
Precursor type: [M+H]+
m/z	relative intensity
97.02	13
98.03	1
98.98	1
119.03	9
135.42	1
135.46	1
136.06	999
136.21	2
136.34	2
136.4	1
136.45	1
136.61	1
136.7	1
136.78	1
137.06	67
137.22	1
138.07	2
178.07	3
204.09	1
214.07	3
232.08	3
250.09	15
251.1	2
268.11	1
330.06	1
348.07	18
349.07	2
