Mass spectrum: Theobromine; LC-ESI-ITFT; MS2; CE: 20;  [M+H]+
Name: Theobromine
Class: Organoheterocyclic compounds; Imidazopyrimidines; Purines and purine derivatives
Formula: C7H8N4O2
Exact mass: 180.06473
SMILES: CN1C=NC2=C1C(=O)NC(=O)N2C
InChI: InChI=1S/C7H8N4O2/c1-10-3-8-5-4(10)6(12)9-7(13)11(5)2/h3H,1-2H3,(H,9,12,13)
Instrument: Thermo Scientific Q-Exactive Focus
Instrument type: LC-ESI-ITFT
Ms type: MS2
Ion mode: POSITIVE
Ionization: ESI
Collision energy: 20
Column name: Acquity CSHC18
Retention time: 0.630 min
Base peak: 181.07201
Precursor m/z: 181.07201
Precursor type: [M+H]+
m/z	relative intensity
67.0296	186
69.0452	110
108.0558	284
110.0715	240
122.0588	121
135.0665	241
137.0822	274
138.0662	435
163.0613	192
181.0719	999
