Mass spectrum: 3-SULFINOALANINE; LC-ESI-QTOF; MS2; CE: 10;  [M+H]+
Name: 3-SULFINOALANINE
Class: NA
Formula: C3H7NO4S
Exact mass: 153.0096
SMILES: N[C@@H](CS(=O)=O)C(O)=O
InChI: InChI=1S/C3H7NO4S/c4-2(3(5)6)1-9(7)8/h2,9H,1,4H2,(H,5,6)/t2-/m0/s1
Instrument: Agilent 6530Â Q-TOF LC/MS
Instrument type: LC-ESI-QTOF
Ms type: MS2
Ion mode: POSITIVE
Ionization: ESI
Collision energy: 10
Retention time: 0.200 min
Base peak: 154.01657
Precursor m/z: 154.01657
Precursor type: [M+H]+
m/z	relative intensity
40.279	7
42.0391	183
42.3234	13
43.0452	77
43.4639	6
44.0533	999
44.2351	27
44.3948	11
45.359	17
45.6552	11
45.8751	6
46.0302	121
48.1745	14
48.9858	6
52.2686	17
56.4676	14
60.6168	25
62.9475	11
63.458	6
68.9387	26
71.0429	41
72.0788	24
73.0274	213
74.0244	750
74.2581	48
74.3684	15
74.634	38
76.0822	18
76.543	11
78.1955	5
79.789	9
83.2382	8
87.2874	12
88.0489	80
89.0442	45
89.611	18
108.0089	31
109.9539	14
111.9037	13
112.7911	6
114.061	14
121.0758	31
128.6846	32
130.0345	8
132.5085	8
136.0064	224
140.9897	41
154.0117	139
158.3898	7
