Mass spectrum: Acetylagmatine; LC-ESI-QTOF; MS2; CE: 15.00;  [M+H]+
Name: Acetylagmatine
Class: NA
Formula: C7H16N4O
Exact mass: 172.1324
SMILES: CC(=O)NCCCCN=C(N)N
InChI: InChI=1S/C7H16N4O/c1-6(12)10-4-2-3-5-11-7(8)9/h2-5H2,1H3,(H,10,12)(H4,8,9,11)
Instrument: Bruker MicrOTOF-Q
Instrument type: LC-ESI-QTOF
Ms type: MS2
Ion mode: POSITIVE
Ionization: ESI
Collision energy: 15.00
Column name: Acquity CSHC18
Retention time: NA
Base peak: 173.1397
Precursor m/z: 173.1397
Precursor type: [M+H]+
m/z	relative intensity
113.1057	251
114.0915	444
115.0915	82
128.1068	10
131.1172	117
132.1208	4
155.1385	7
156.1126	999
157.1159	77
173.1399	855
174.1445	57
