Mass spectrum: Citric acid; LC-ESI-ITFT; MS2; CE: 100;  [M-H]-
Name: Citric acid
Class: Organic acids and derivatives; Carboxylic acids and derivatives; Tricarboxylic acids and derivatives
Formula: C6H8O7
Exact mass: 192.02700
SMILES: OC(=O)CC(O)(CC(O)=O)C(O)=O
InChI: InChI=1S/C6H8O7/c7-3(8)1-6(13,5(11)12)2-4(9)10/h13H,1-2H2,(H,7,8)(H,9,10)(H,11,12)
Instrument: Thermo Scientific Q-Exactive Focus
Instrument type: LC-ESI-ITFT
Ms type: MS2
Ion mode: NEGATIVE
Ionization: ESI
Collision energy: 100
Column name: Acquity CSHC18
Retention time: 2.104 min
Base peak: 191.01973
Precursor m/z: 191.01973
Precursor type: [M-H]-
m/z	relative intensity
77.1899	904
99.4463	958
102.4639	955
120.0394	984
129.6912	947
139.6039	916
149.2918	999
150.3772	899
165.0018	944
198.4984	963
