Mass spectrum: UREIDOPROPIONATE; LC-ESI-QFT; MS2; CE: 30eV;  [M+H]+
Name: UREIDOPROPIONATE
Class: NA
Formula: C4H8N2O3
Exact mass: 132.05349
SMILES: NC(=O)NCCC(O)=O
InChI: InChI=1S/C4H8N2O3/c5-4(9)6-2-1-3(7)8/h1-2H2,(H,7,8)(H3,5,6,9)
Instrument: Q-Exactive Orbitrap, Thermo Scientfic; Ultimate 3000 HPLC, Thermo Scientfic
Instrument type: LC-ESI-QFT
Ms type: MS2
Ion mode: POSITIVE
Ionization: ESI
Collision energy: 30eV
Column name: Acquity CSHC18
Retention time: 0.704 min
Base peak: 133.0608
Precursor m/z: 133.0608
Precursor type: [M+H]+
Precursor intensity: 137
m/z	relative intensity
53.94	1
54.1535	1
54.18	1
55.0187	4
56.0415	1
56.2123	1
61.0293	3
62.7524	1
66.7136	2
67.6841	1
70.0295	8
72.0452	290
72.938	3
73.0404	328
73.0485	4
74.044	2
87.0561	4
88.0762	2
90.0557	994
90.833	1
91.0592	22
92.901	2
97.172	2
98.0243	35
98.2112	2
101.4434	2
105.0705	18
107.9509	2
115.0508	999
116.0348	10
116.0477	3
116.054	29
125.0777	2
133.0611	55
133.0655	3
133.1015	15
140.8917	2
151.5578	1
