Mass spectrum: 1-Dehydrotestosterone; LC-ESI-QTOF; MS2; CE: 20;  [M+H]+
Name: 1-Dehydrotestosterone
Class: NA
Formula: C19H26O2
Exact mass: 286.1933
SMILES: C[C@]12CC[C@H]3[C@H]([C@@H]1CC[C@@H]2O)CCC4=CC(=O)C=C[C@]34C
InChI: InChI=1S/C19H26O2/c1-18-9-7-13(20)11-12(18)3-4-14-15-5-6-17(21)19(15,2)10-8-16(14)18/h7,9,11,14-17,21H,3-6,8,10H2,1-2H3/t14-,15-,16-,17-,18-,19-/m0/s1
Instrument: Agilent 6560Â Ion Mobility Q-TOF LC/MS
Instrument type: LC-ESI-QTOF
Ms type: MS2
Ion mode: POSITIVE
Ionization: ESI
Collision energy: 20
Column name: Acquity CSHC18
Retention time: 0.200 min
Base peak: 287.2012
Precursor m/z: 287.2012
Precursor type: [M+H]+
Precursor intensity: 110.5
m/z	relative intensity
77.0305	82
91.0508	92
93.0619	95
119.0773	115
121.0637	133
122.0582	143
135.1071	143
147.0786	162
154.9226	162
173.0874	175
287.1881	999
