Mass spectrum: Glutathione; LC-ESI-ITFT; MS2; CE: 100;  [M-H]-
Name: Glutathione
Class: Organic acids and derivatives; Carboxylic acids and derivatives; Amino acids, peptides, and analogues
Formula: C10H17N3O6S
Exact mass: 307.08381
SMILES: N[C@@H](CCC(=O)N[C@@H](CS)C(=O)NCC(O)=O)C(O)=O
InChI: InChI=1S/C10H17N3O6S/c11-5(10(18)19)1-2-7(14)13-6(4-20)9(17)12-3-8(15)16/h5-6,20H,1-4,11H2,(H,12,17)(H,13,14)(H,15,16)(H,18,19)/t5-,6-/m0/s1
Instrument: Thermo Scientific Q-Exactive Focus
Instrument type: LC-ESI-ITFT
Ms type: MS2
Ion mode: NEGATIVE
Ionization: ESI
Collision energy: 100
Column name: Acquity CSHC18
Retention time: NA
Base peak: 306.07654
Precursor m/z: 306.07654
Precursor type: [M-H]-
m/z	relative intensity
58.9949	919
74.0235	999
93.7753	640
128.0933	605
153.6558	691
166.1181	652
224.0802	668
245.0326	674
250.9037	712
300.158	620
