Mass spectrum: Tyrosine; LC-ESI-QTOF; MS2; CE: 15 / 50;  [M+H]+
Name: Tyrosine
Class: NA
Formula: C9H11NO3
Exact mass: 181.07389
SMILES: C1=CC(=CC=C1CC(C(=O)O)N)O
InChI: InChI=1S/C9H11NO3/c10-8(9(12)13)5-6-1-3-7(11)4-2-6/h1-4,8,11H,5,10H2,(H,12,13)
Instrument: impact II
Instrument type: LC-ESI-QTOF
Ms type: MS2
Ion mode: POSITIVE
Ionization: ESI
Collision energy: 15 / 50
Column name: Acquity CSHC18
Retention time: 0.573 min
Base peak: 182.08130
Precursor m/z: 182.08130
Precursor type: [M+H]+
m/z	relative intensity
91.0544	273
107.0491	106
119.0491	138
123.0442	305
136.0756	999
147.0438	164
165.0545	505
