Mass spectrum: Quercetin 3-O-malonylglucoside; LC-ESI-QTOF; MS2; CE: 20-40eV;  [M+H]+
Name: Quercetin 3-O-malonylglucoside
Class: flavonoid
Formula: C24H22O15
Exact mass: 550.0959
SMILES: C1=CC(=C(C=C1C2=C(C(C3=C(C=C(C=C3O2)O)O)=O)OC4(C(C(C(C(COC(CC(=O)O)=O)(O4)[H])(O)[H])(O)[H])(O)[H])[H])O)O
InChI: InChI=1S/C24H22O15/c25-9-4-12(28)17-13(5-9)37-22(8-1-2-10(26)11(27)3-8)23(19(17)33)39-24-21(35)20(34)18(32)14(38-24)7-36-16(31)6-15(29)30/h1-5,14,18,20-21,24-28,32,34-35H,6-7H2,(H,29,30)
Instrument: Impact II, Bruker; Dionex 3000, Thermo Scientific
Instrument type: LC-ESI-QTOF
Ms type: MS2
Ion mode: POSITIVE
Ionization: ESI
Collision energy: 20-40eV
Column name: Acquity CSHC18
Retention time: 5.113 min
Base peak: 551.1010
Precursor m/z: 551.1010
Precursor type: [M+H]+
Precursor intensity: 1282.38
m/z	relative intensity
117.0156	104
225.1482	76
303.0505	999
304.048	78
