Mass spectrum: Ureidosuccinic acid; LC-ESI-QTOF; MS2; CE: 15;  [M-H]-
Name: Ureidosuccinic acid
Class: NA
Formula: C5H8N2O5
Exact mass: 176.0433
SMILES: C(C(C(=O)O)NC(=O)N)C(=O)O
InChI: InChI=1S/C5H8N2O5/c6-5(12)7-2(4(10)11)1-3(8)9/h2H,1H2,(H,8,9)(H,10,11)(H3,6,7,12)
Instrument: Bruker MicrOTOF-Q
Instrument type: LC-ESI-QTOF
Ms type: MS2
Ion mode: NEGATIVE
Ionization: ESI
Collision energy: 15
Column name: Acquity CSHC18
Retention time: NA
Base peak: 175.0360
Precursor m/z: 175.0360
Precursor type: [M-H]-
m/z	relative intensity
44.9182	43
46.3895	28
47.8004	44
49.8966	43
51.3537	30
57.9476	43
59.5676	23
60.0371	36
61.2713	50
64.5343	26
66.2674	23
73.3868	31
77.4489	35
83.1363	34
86.3228	29
86.779	40
88.042	227
92.8442	43
95.4799	35
97.5863	36
101.4831	35
104.7338	25
107.7373	44
111.3171	35
112.9978	33
113.9781	138
114.5801	39
115.0039	999
118.607	205
126.5422	28
127.839	32
130.408	41
131.0522	32
131.7923	522
133.0278	93
176.2797	24
205.3117	27
235.9493	27
236.7847	42
251.5768	33
334.5921	31
340.8451	23
369.5098	37
379.1363	27
415.4224	27
436.1187	26
569.4893	21
633.8748	36
655.4314	40
669.5447	36
671.1766	28
675.79	21
690.3745	31
700.8228	31
741.1603	23
789.3807	25
912.5086	37
981.1923	32
982.4069	35
