Mass spectrum: L-Fucose; LC-ESI-QTOF; MS2; CE: 15.00;  [M+Na]+
Name: L-Fucose
Class: NA
Formula: C6H12O5
Exact mass: 164.0685
SMILES: CC1C(C(C(C(O1)O)O)O)O
InChI: InChI=1S/C6H12O5/c1-2-3(7)4(8)5(9)6(10)11-2/h2-10H,1H3
Instrument: Bruker MicrOTOF-Q
Instrument type: LC-ESI-QTOF
Ms type: MS2
Ion mode: POSITIVE
Ionization: ESI
Collision energy: 15.00
Column name: Acquity CSHC18
Retention time: NA
Base peak: 187.0577
Precursor m/z: 187.0577
Precursor type: [M+Na]+
m/z	relative intensity
112.0386	93
126.0474	464
126.9726	101
129.0129	89
135.9464	101
187.0515	999
188.0113	140
188.0908	140
374.1845	81
