Mass spectrum: 4-hydroxyphenylacetic acid; LC-ESI-QTOF; MS2; CE: 15.00;  [M-H]-
Name: 4-hydroxyphenylacetic acid
Class: NA
Formula: C8H8O3
Exact mass: 152.0473
SMILES: C1=CC(=CC=C1CC(=O)O)O
InChI: InChI=1S/C8H8O3/c9-7-3-1-6(2-4-7)5-8(10)11/h1-4,9H,5H2,(H,10,11)
Instrument: Bruker MicrOTOF-Q
Instrument type: LC-ESI-QTOF
Ms type: MS2
Ion mode: NEGATIVE
Ionization: ESI
Collision energy: 15.00
Column name: Acquity CSHC18
Retention time: NA
Base peak: 151.0401
Precursor m/z: 151.0401
Precursor type: [M-H]-
m/z	relative intensity
44.984	77
57.2454	58
67.8401	105
76.6233	88
85.6954	102
93.0389	417
98.9951	56
102.8272	49
105.0352	249
106.0431	242
107.0493	999
108.0522	119
111.2116	105
124.1949	58
150.8205	46
170.8969	79
177.6019	60
179.8378	65
183.8951	46
190.4638	56
278.6846	63
288.1065	63
327.1787	58
352.7885	65
358.6379	56
373.1373	51
381.0938	53
412.9437	67
448.4613	63
488.5536	46
582.926	112
687.3688	79
699.3532	79
773.0188	51
872.5567	63
910.181	88
983.661	46
997.2388	56
