Mass spectrum: Glucoraphanin; LC-ESI-QTOF; MS2; CE: 15.00;  [M-C6H10O8S+H]+
Name: Glucoraphanin
Class: NA
Formula: C12H23NO10S3
Exact mass: 437.0484
SMILES: CS(=O)CCCCC(=NOS(=O)(=O)O)SC1C(C(C(C(O1)CO)O)O)O
InChI: InChI=1S/C12H23NO10S3/c1-25(18)5-3-2-4-8(13-23-26(19,20)21)24-12-11(17)10(16)9(15)7(6-14)22-12/h7,9-12,14-17H,2-6H2,1H3,(H,19,20,21)
Instrument: Bruker MicrOTOF-Q
Instrument type: LC-ESI-QTOF
Ms type: MS2
Ion mode: POSITIVE
Ionization: ESI
Collision energy: 15.00
Column name: Acquity CSHC18
Retention time: NA
Base peak: 196.0460
Precursor m/z: 196.0460
Precursor type: [M-C6H10O8S+H]+
m/z	relative intensity
107.5392	120
128.0566	120
129.0681	105
130.032	220
132.0479	999
134.0478	226
