Mass spectrum: D-Panthenol; LC-ESI-QTOF; MS2; CE: 0.00;  [M+H]+
Name: D-Panthenol
Class: NA
Formula: C9H19NO4
Exact mass: 205.1314
SMILES: CC(C)(CO)C(C(=O)NCCCO)O
InChI: InChI=1S/C9H19NO4/c1-9(2,6-12)7(13)8(14)10-4-3-5-11/h7,11-13H,3-6H2,1-2H3,(H,10,14)
Instrument: Bruker MicrOTOF-Q
Instrument type: LC-ESI-QTOF
Ms type: MS2
Ion mode: POSITIVE
Ionization: ESI
Collision energy: 0.00
Column name: Acquity CSHC18
Retention time: NA
Base peak: 206.1387
Precursor m/z: 206.1387
Precursor type: [M+H]+
m/z	relative intensity
112.073	83
113.0562	107
114.0558	120
125.076	136
130.1234	140
131.0678	140
132.0895	154
140.1068	162
141.0921	171
143.115	171
144.1078	175
153.0978	179
159.1241	182
160.0388	186
170.0085	207
170.4147	210
170.7602	213
172.1126	220
187.989	256
188.3378	282
188.5373	300
188.6979	457
190.1389	469
206.0193	542
206.3898	644
206.605	788
208.144	999
