Mass spectrum: 5-(methylsulfinyl)pentyl-glucosinolate; LC-ESI-QTOF; MS2; CE: 50eV;  [M-H]-
Name: 5-(methylsulfinyl)pentyl-glucosinolate
Class: aliphatic glucosinolate
Formula: C13H25NO10S3
Exact mass: 451.0641
SMILES: O[C@H]1[C@@H](O)[C@@H](O)[C@H](S/C(CCCCCS(C)=O)=N/OS(=O)(O)=O)O[C@@H]1CO
InChI: InChI=1S/C13H25NO10S3/c1-26(19)6-4-2-3-5-9(14-24-27(20,21)22)25-13-12(18)11(17)10(16)8(7-15)23-13/h8,10-13,15-18H,2-7H2,1H3,(H,20,21,22)/b14-9+/t8-,10-,11-,12-,13+,26?/m1/s1
Instrument: TIMS-TOF Pro, Bruker Daltonik; Elute UHPLC System, Bruker Daltonik
Instrument type: LC-ESI-QTOF
Ms type: MS2
Ion mode: NEGATIVE
Ionization: ESI
Collision energy: 50eV
Column name: Acquity CSHC18
Retention time: 3.590 min
Base peak: 450.0478
Precursor m/z: 450.0478
Precursor type: [M-H]-
Precursor intensity: 5055.44
m/z	relative intensity
71.0114	21
74.9892	131
96.9587	299
97.9533	16
185.491	16
386.0499	118
387.0574	13
388.0476	18
435.026	38
450.0478	999
