Mass spectrum: PYROGLUTAMATE; LC-ESI-QFT; MS2; CE: 30eV;  [M+H]+
Name: PYROGLUTAMATE
Class: NA
Formula: C5H7NO3
Exact mass: 129.04259
SMILES: OC(=O)[C@@H]1CCC(=O)N1
InChI: InChI=1S/C5H7NO3/c7-4-2-1-3(6-4)5(8)9/h3H,1-2H2,(H,6,7)(H,8,9)/t3-/m0/s1
Instrument: Q-Exactive Orbitrap, Thermo Scientfic; Ultimate 3000 HPLC, Thermo Scientfic
Instrument type: LC-ESI-QFT
Ms type: MS2
Ion mode: POSITIVE
Ionization: ESI
Collision energy: 30eV
Column name: Acquity CSHC18
Retention time: 0.765 min
Base peak: 130.0499
Precursor m/z: 130.0499
Precursor type: [M+H]+
Precursor intensity: 183
m/z	relative intensity
51.4624	1
51.9758	1
52.2143	1
52.2227	2
54.6204	1
56.0503	71
61.2865	1
62.651	1
64.19	1
71.9301	12
72.9379	2
73.1347	1
74.0608	10
84.0814	3
85.0421	4
85.0484	64
87.1886	1
88.0764	155
89.9406	16
90.9482	2
97.0083	19
102.0556	32
107.9509	14
120.0241	2
125.573	1
125.9615	11
130.0503	999
130.0865	2
130.123	313
130.9669	8
131.0534	17
131.1264	4
136.8093	2
148.9774	15
