Mass spectrum: Yohimbine; ESI-QTOF; MS2; CE: 30 eV;  [M+H]+
Name: Yohimbine
Class: NA
Formula: C21H26N2O3
Exact mass: 354.1943
SMILES: COC(C1(C2(CC3(C4=C(CCN3CC2(CCC1(O)[H])[H])C5=CC=CC=C5N4)[H])[H])[H])=O
InChI: InChI=1S/C21H26N2O3/c1-26-21(25)19-15-10-17-20-14(13-4-2-3-5-16(13)22-20)8-9-23(17)11-12(15)6-7-18(19)24/h2-5,12,15,17-19,22,24H,6-11H2,1H3
Instrument: Synapt (HDMS 1st gen)
Instrument type: ESI-QTOF
Ms type: MS2
Ion mode: POSITIVE
Ionization: ESI
Collision energy: 30 eV
Column name: Acquity CSHC18
Retention time: 9.798 min
Base peak: 355.2007
Precursor m/z: 355.2007
Precursor type: [M+H]+
Precursor intensity: 71572.79
m/z	relative intensity
144.0804	15
145.0866	23
194.1177	34
212.1299	36
213.1348	180
224.1282	226
355.201	999
