Mass spectrum: 15(R)-15-methyl Prostaglandin D2; ESI-TOF; MS2; CE: 0.6458333;  [M+H]+
Name: 15(R)-15-methyl Prostaglandin D2
Class: NA
Formula: C21H34O5
Exact mass: 366.24062
SMILES: CCCCC[C@@](C)(O)\C=C\[C@H]1C(=O)CC(O)C1C/C=C\CCCC(=O)O
InChI: InChI=1S/C21H34O5/c1-3-4-9-13-21(2,26)14-12-17-16(18(22)15-19(17)23)10-7-5-6-8-11-20(24)25/h5,7,12,14,16-18,22,26H,3-4,6,8-11,13,15H2,1-2H3,(H,24,25)/b7-5-,14-12+/t16?,17-,18?,21-/m1/s1
Instrument: waters xevo g2 TOF
Instrument type: ESI-TOF
Ms type: MS2
Ion mode: POSITIVE
Ionization: ESI
Collision energy: 0.6458333
Column name: Acquity CSHC18
Retention time: 3.721 min
Base peak: 367.24862
Precursor m/z: 367.24862
Precursor type: [M+H]+
m/z	relative intensity
69.0687	84
81.0705	459
85.0648	81
91.0551	280
93.0712	234
97.1026	105
105.071	510
107.0869	302
109.065	69
115.0547	56
117.0713	219
119.0871	357
121.1022	168
123.1185	221
129.0706	325
131.086	704
133.102	177
135.0795	77
137.06	63
137.964	44
141.0708	163
143.087	363
145.1024	329
147.0823	320
152.9997	56
155.0869	326
157.104	286
159.0804	265
161.097	256
165.0236	101
169.1019	432
170.1046	32
173.0943	372
175.1486	109
182.002	140
183.1176	340
185.1127	173
187.1307	235
195.0062	29
197.1322	245
201.1277	135
202.0947	30
203.1421	169
205.1598	132
211.1495	151
215.107	163
217.1211	57
219.1782	87
221.1442	105
225.0442	29
229.1599	259
230.1614	30
231.1751	51
243.1379	44
247.1695	266
253.1907	77
267.2097	109
271.202	70
277.1941	149
279.0899	87
280.0419	40
287.1974	18
295.2058	196
313.2172	999
314.2219	118
331.2282	744
332.2301	149
349.2362	131
355.2413	72
369.1719	492
