Mass spectrum: 4-Aminohippuric acid; ESI-TOF; MS2; CE: 6.0000000;  [M+H]+
Name: 4-Aminohippuric acid
Class: NA
Formula: C9H10N2O3
Exact mass: 194.06914
SMILES: NC1=CC=C(C=C1)C(=O)NCC(O)=O
InChI: InChI=1S/C9H10N2O3/c10-7-3-1-6(2-4-7)9(14)11-5-8(12)13/h1-4H,5,10H2,(H,11,14)(H,12,13)
Instrument: waters xevo g2 TOF
Instrument type: ESI-TOF
Ms type: MS2
Ion mode: POSITIVE
Ionization: ESI
Collision energy: 6.0000000
Column name: Acquity CSHC18
Retention time: 0.955 min
Base peak: 195.07714
Precursor m/z: 195.07714
Precursor type: [M+H]+
m/z	relative intensity
92.0501	2
120.045	999
121.0482	29
122.0564	3
177.0661	1
195.0767	8
211.0868	6
218.0617	2
233.0294	1
235.0501	1
284.1037	7
285.11	2
286.1179	3
385.113	2
386.1211	2
