Mass spectrum: Cianidanol; LC-ESI-ITFT; MS2; CE: 45eV;  [M-H]-
Name: Cianidanol
Class: flavonoid
Formula: C15H14O6
Exact mass: 290.0790
SMILES: C1C(C(OC2=CC(=CC(=C21)O)O)C3=CC(=C(C=C3)O)O)O
InChI: InChI=1S/C15H14O6/c16-8-4-11(18)9-6-13(20)15(21-14(9)5-8)7-1-2-10(17)12(19)3-7/h1-5,13,15-20H,6H2
Instrument: LTQ Orbitrap XL, Thermo Scientfic; Dionex Ultimate 300
Instrument type: LC-ESI-ITFT
Ms type: MS2
Ion mode: NEGATIVE
Ionization: ESI
Collision energy: 45eV
Column name: Alltima C18
Retention time: 11.9 min
Base peak: 289.0712
Precursor m/z: 289.0712
Precursor type: [M-H]-
m/z	relative intensity
123.0494	19
124.9356	86
148.9643	9
161.023	81
164.9886	94
175.1082	32
185.1304	5
201.0969	13
205.0133	999
212.067	3
227.1478	65
242.9818	3
