Mass spectrum: PYRIDOXAL; LC-ESI-QTOF; MS2; CE: 10;  [M+H]+
Name: PYRIDOXAL
Class: NA
Formula: C8H9NO3
Exact mass: 167.05824
SMILES: CC1=NC=C(CO)C(C=O)=C1O
InChI: InChI=1S/C8H9NO3/c1-5-8(12)7(4-11)6(3-10)2-9-5/h2,4,10,12H,3H2,1H3
Instrument: Agilent 6530Â Q-TOF LC/MS
Instrument type: LC-ESI-QTOF
Ms type: MS2
Ion mode: POSITIVE
Ionization: ESI
Collision energy: 10
Column name: NA
Retention time: 0.200 min
Base peak: 168.06854
Precursor m/z: 168.06854
Precursor type: [M+H]+
Precursor intensity: 53.5
m/z	relative intensity
41.0391	12
42.044	12
51.0295	13
53.0554	13
54.0345	13
65.0682	13
66.0379	13
67.2362	13
67.5878	13
67.77	14
68.0581	14
75.0193	14
77.0658	14
78.05	14
79.0812	15
80.0551	15
81.0504	15
82.0362	16
85.0798	16
92.0605	16
93.0778	16
93.1857	17
94.5968	17
95.2886	17
95.4454	21
96.0538	22
104.0608	23
105.0306	27
106.2264	30
106.6861	32
107.0845	32
108.0504	33
109.0401	36
110.0583	37
121.0552	40
122.6054	54
123.5652	68
124.0754	69
134.0647	99
138.0489	112
140.0696	151
148.0761	212
150.8824	227
153.2464	288
153.4557	298
154.0088	346
154.7363	395
155.3572	396
167.0635	419
168.3511	491
168.7716	999
169.6812	12
