Mass spectrum: Abietic acid; LC-ESI-QTOF; MS2; CE: 15.24;  [M+H]+
Name: Abietic acid
Class: NA
Formula: C20H30O2
Exact mass: 302.2246
SMILES: CC(C)C1=CC2=CCC3C(C2CC1)(CCCC3(C)C(=O)O)C
InChI: InChI=1S/C20H30O2/c1-13(2)14-6-8-16-15(12-14)7-9-17-19(16,3)10-5-11-20(17,4)18(21)22/h7,12-13,16-17H,5-6,8-11H2,1-4H3,(H,21,22)
Instrument: Bruker MicrOTOF-Q
Instrument type: LC-ESI-QTOF
Ms type: MS2
Ion mode: POSITIVE
Ionization: ESI
Collision energy: 15.24
Column name: Acquity CSHC18
Retention time: NA
Base peak: 303.2319
Precursor m/z: 303.2319
Precursor type: [M+H]+
m/z	relative intensity
121.0998	24
123.115	25
124.1186	26
133.0989	27
135.1154	27
136.12	29
137.1309	32
139.1098	35
147.1158	37
149.1315	38
150.1366	40
159.1166	42
161.1303	45
163.1483	51
167.1069	54
173.1318	55
175.1478	58
179.1075	61
187.1477	65
193.1216	72
201.1627	78
202.1661	86
205.1217	93
215.1794	95
219.1374	102
247.1691	154
257.2258	173
258.23	196
259.1693	238
267.2109	251
285.2214	261
286.2241	349
303.2318	417
304.2362	999
