Mass spectrum: Oxidized glutathione; LC-ESI-ITFT; MS2; CE: 20;  [M-H]-
Name: Oxidized glutathione
Class: Organic acids and derivatives; Carboxylic acids and derivatives; Amino acids, peptides, and analogues
Formula: C20H32N6O12S2
Exact mass: 612.15196
SMILES: NC(CCC(=O)NC(CSSCC(NC(=O)CCC(N)C(O)=O)C(=O)NCC(O)=O)C(=O)NCC(O)=O)C(O)=O
InChI: InChI=1S/C20H32N6O12S2/c21-9(19(35)36)1-3-13(27)25-11(17(33)23-5-15(29)30)7-39-40-8-12(18(34)24-6-16(31)32)26-14(28)4-2-10(22)20(37)38/h9-12H,1-8,21-22H2,(H,23,33)(H,24,34)(H,25,27)(H,26,28)(H,29,30)(H,31,32)(H,35,36)(H,37,38)
Instrument: Thermo Scientific Q-Exactive Focus
Instrument type: LC-ESI-ITFT
Ms type: MS2
Ion mode: NEGATIVE
Ionization: ESI
Collision energy: 20
Column name: Acquity CSHC18
Retention time: 0.647 min
Base peak: 611.14465
Precursor m/z: 611.14465
Precursor type: [M-H]-
m/z	relative intensity
143.0452	14
254.078	25
272.0887	194
288.0659	27
304.0607	94
306.0765	999
338.0484	173
482.101	29
593.1334	31
611.1442	866
