Mass spectrum: (+)-Alpha-bisabolol; LC-ESI-QTOF; MS2; CE: 15.00;  [M-H2O+H]+
Name: (+)-Alpha-bisabolol
Class: NA
Formula: C15H26O
Exact mass: 222.1984
SMILES: CC1=CCC(CC1)C(C)(CCC=C(C)C)O
InChI: InChI=1S/C15H26O/c1-12(2)6-5-11-15(4,16)14-9-7-13(3)8-10-14/h6-7,14,16H,5,8-11H2,1-4H3
Instrument: Bruker MicrOTOF-Q
Instrument type: LC-ESI-QTOF
Ms type: MS2
Ion mode: POSITIVE
Ionization: ESI
Collision energy: 15.00
Column name: Acquity CSHC18
Retention time: NA
Base peak: 205.1951
Precursor m/z: 205.1951
Precursor type: [M-H2O+H]+
m/z	relative intensity
100.41	466
107.08	533
152.14	644
203.88	777
225.88	533
245.18	999
