Mass spectrum: CIS-4-HYDROXY-D-PROLINE; LC-ESI-QTOF; MS2; CE: 40;  [M+H]+
Name: CIS-4-HYDROXY-D-PROLINE
Class: NA
Formula: C5H9NO3
Exact mass: 131.05824
SMILES: O[C@H]1CN[C@H](C1)C(O)=O
InChI: InChI=1S/C5H9NO3/c7-3-1-4(5(8)9)6-2-3/h3-4,6-7H,1-2H2,(H,8,9)/t3-,4-/m1/s1
Instrument: Agilent 6530Â Q-TOF LC/MS
Instrument type: LC-ESI-QTOF
Ms type: MS2
Ion mode: POSITIVE
Ionization: ESI
Collision energy: 40
Column name: NA
Retention time: 0.200 min
Base peak: 132.06807
Precursor m/z: 132.06807
Precursor type: [M+H]+
Precursor intensity: 112.5
m/z	relative intensity
41.0595	40
42.044	41
43.0439	43
44.048	45
56.0498	70
57.054	138
58.0823	145
62.9385	169
68.1364	297
86.0711	879
90.901	999
