Mass spectrum: DL-Homocystine; ESI-TOF; MS2; CE: 0.6458333;  [M+H]+
Name: DL-Homocystine
Class: NA
Formula: C8H16N2O4S2
Exact mass: 268.05515
SMILES: NC(CCSSCCC(N)C(O)=O)C(O)=O
InChI: InChI=1S/C8H16N2O4S2/c9-5(7(11)12)1-3-15-16-4-2-6(10)8(13)14/h5-6H,1-4,9-10H2,(H,11,12)(H,13,14)
Instrument: waters xevo g2 TOF
Instrument type: ESI-TOF
Ms type: MS2
Ion mode: POSITIVE
Ionization: ESI
Collision energy: 0.6458333
Column name: Acquity CSHC18
Retention time: 0.543 min
Base peak: 269.06315
Precursor m/z: 269.06315
Precursor type: [M+H]+
m/z	relative intensity
88.0221	999
90.0379	827
95.9745	43
98.9628	233
104.9834	40
118.0329	66
134.0606	420
135.0567	2
137.9659	11
137.9884	2
138.0559	2
140.9633	2
141.9594	23
142.9643	75
143.9582	126
148.0411	2
149.9807	2
162.9831	2
167.0085	2
182.9857	2
189.9703	2
195.9091	2
206.9983	2
207.974	2
230.991	2
231.9862	2
237.0927	2
249.8872	2
269.0626	201
270.0655	2
271.0593	2
277.9843	2
291.0456	20
293.0229	2
307.0134	2
318.7892	17
322.9852	19
324.9852	13
537.1196	2
590.0273	37
591.033	15
858.0962	6
