Mass spectrum: Geranyl-PP; LC-ESI-QTOF; MS2; CE: 30;  [M-H]-
Name: Geranyl-PP
Class: Isoprenoid phosphates
Formula: C10H20O7P2
Exact mass: 314.0684
SMILES: CC(C)=CCC\C(C)=C\COP(O)(=O)OP(O)(O)=O
InChI: InChI=1S/C10H20O7P2/c1-9(2)5-4-6-10(3)7-8-16-19(14,15)17-18(11,12)13/h5,7H,4,6,8H2,1-3H3,(H,14,15)(H2,11,12,13)/b10-7+
Instrument: impact II
Instrument type: LC-ESI-QTOF
Ms type: MS2
Ion mode: NEGATIVE
Ionization: ESI
Collision energy: 30
Column name: Acquity CSHC18
Retention time: 1.835 min
Base peak: 313.0569
Precursor m/z: 313.0569
Precursor type: [M-H]-
m/z	relative intensity
78.9596	999
78.9705	52
79.0001	3
79.0167	4
79.0246	4
79.0308	9
79.0446	1
79.079	1
79.114	1
79.1261	1
79.1724	1
79.219	1
79.9639	2
80.9644	3
157.9167	4
158.9245	59
295.0466	1
