Mass spectrum: Kaempferol-3-O-glucoside; LC-ESI-QTOF; MS2; CE: 50eV;  [M+Na]+
Name: Kaempferol-3-O-glucoside
Class: Flavonol
Formula: C21H20O11
Exact mass: 448.1006
SMILES: C1=CC(=CC=C1C2=C(C(=O)C3=C(C=C(C=C3O2)O)O)OC4C(C(C(C(O4)CO)O)O)O)O
InChI: InChI=1S/C21H20O11/c22-7-13-15(26)17(28)18(29)21(31-13)32-20-16(27)14-11(25)5-10(24)6-12(14)30-19(20)8-1-3-9(23)4-2-8/h1-6,13,15,17-18,21-26,28-29H,7H2
Instrument: TIMS-TOF Pro, Bruker Daltonik; Elute UHPLC System, Bruker Daltonik
Instrument type: LC-ESI-QTOF
Ms type: MS2
Ion mode: POSITIVE
Ionization: ESI
Collision energy: 50eV
Column name: Acquity CSHC18
Retention time: 5.517 min
Base peak: 471.0873
Precursor m/z: 471.0873
Precursor type: [M+Na]+
Precursor intensity: 4931.12
m/z	relative intensity
117.505	374
309.0333	509
471.077	999
