Mass spectrum: HOMOCYSTEINE THIOLACTONE; LC-ESI-QFT; MS2; CE: 30eV;  [M+H]+
Name: HOMOCYSTEINE THIOLACTONE
Class: NA
Formula: C4H7NOS
Exact mass: 117.02483
SMILES: NC1CCSC1=O
InChI: InChI=1S/C4H7NOS/c5-3-1-2-7-4(3)6/h3H,1-2,5H2
Instrument: Q-Exactive Orbitrap, Thermo Scientfic; Ultimate 3000 HPLC, Thermo Scientfic
Instrument type: LC-ESI-QFT
Ms type: MS2
Ion mode: POSITIVE
Ionization: ESI
Collision energy: 30eV
Column name: Acquity CSHC18
Retention time: 0.605 min
Base peak: 118.0321
Precursor m/z: 118.0321
Precursor type: [M+H]+
Precursor intensity: 106
m/z	relative intensity
51.1562	2
51.4452	1
52.624	1
52.9785	2
54.0347	3
55.9353	4
56.0503	999
56.943	3
57.0537	20
57.9356	4
58.066	98
58.0674	4
58.9434	4
59.0738	114
59.0752	4
59.574	2
59.931	2
60.0772	2
67.9526	5
68.4532	11
68.9529	42
71.0693	2
71.2376	2
71.9302	2
71.9911	14
72.0816	3
72.9379	21
73.0114	203
74.9537	4
76.0766	4
86.4508	2
89.9646	3
90.9484	18
91.0349	4
91.0373	18
91.0413	85
91.044	5
91.055	10
98.4713	11
100.0222	390
101.0062	123
101.0225	2
101.0257	11
103.7548	2
106.4761	2
106.6107	2
106.7236	2
106.9768	2
107.4766	11
112.6571	2
113.7153	2
116.4818	15
116.4899	2
116.9725	29
117.3695	2
117.9803	20
118.0327	446
118.1233	3
118.1916	2
118.9433	5
118.968	20
119.0361	11
119.0862	4
119.0901	47
