Mass spectrum: D-sorbose; LC-ESI-QTOF; MS2; CE: -10, -35, -60V;  [M-H]-
Name: D-sorbose
Class: NA
Formula: C6H12O6
Exact mass: 180.0634
SMILES: C(C(C(C(C(=O)CO)O)O)O)O
InChI: InChI=1S/C6H12O6/c7-1-3(9)5(11)6(12)4(10)2-8/h3,5-9,11-12H,1-2H2
Instrument: TripleToF 5600; Sciex
Instrument type: LC-ESI-QTOF
Ms type: MS2
Ion mode: NEGATIVE
Ionization: ESI
Collision energy: -10, -35, -60V
Column name: Acquity CSHC18
Retention time: 0.674 min
Base peak: 179.0571
Precursor m/z: 179.0571
Precursor type: [M-H]-
Precursor intensity: 83960.19
m/z	relative intensity
71.0143	567
89.0246	999
101.0286	90
113.0248	156
149.0398	69
179.0566	772
