Mass spectrum: ADENOSINE; LC-ESI-QTOF; MS2; CE: 40;  [M+H]+
Name: ADENOSINE
Class: NA
Formula: C10H13N5O4
Exact mass: 267.09675
SMILES: NC1=NC=NC2=C1N=CN2[C@@H]1O[C@H](CO)[C@@H](O)[C@H]1O
InChI: InChI=1S/C10H13N5O4/c11-8-5-9(13-2-12-8)15(3-14-5)10-7(18)6(17)4(1-16)19-10/h2-4,6-7,10,16-18H,1H2,(H2,11,12,13)/t4-,6-,7-,10-/m1/s1
Instrument: Agilent 6530Â Q-TOF LC/MS
Instrument type: LC-ESI-QTOF
Ms type: MS2
Ion mode: POSITIVE
Ionization: ESI
Collision energy: 40
Column name: NA
Retention time: 0.200 min
Base peak: 268.09888
Precursor m/z: 268.09888
Precursor type: [M+H]+
Precursor intensity: 133.5
m/z	relative intensity
40.0245	26
41.0553	26
43.0377	27
45.0554	28
47.0131	29
49.0305	29
53.0399	30
55.0432	33
57.0619	35
59.0508	35
61.0425	38
65.0326	42
67.0468	43
69.0536	52
71.0351	95
73.0434	122
77.0169	130
82.0532	146
85.0442	161
92.0481	173
94.0688	184
95.0524	202
97.0293	226
103.0328	253
109.0758	285
110.0506	325
119.4932	326
135.5231	358
136.6881	374
137.5791	418
137.7052	479
137.976	590
148.0738	999
