Mass spectrum: ANILINE-2-SULFONATE; LC-ESI-QTOF; MS2; CE: 40;  [M-H]-
Name: ANILINE-2-SULFONATE
Class: NA
Formula: C6H7NO3S
Exact mass: 173.01466
SMILES: C1=CC=C(C(=C1)N)S(=O)(=O)O
InChI: InChI=1S/C6H7NO3S/c7-5-3-1-2-4-6(5)11(8,9)10/h1-4H,7H2,(H,8,9,10)
Instrument: Agilent 6530Â Q-TOF LC/MS
Instrument type: LC-ESI-QTOF
Ms type: MS2
Ion mode: NEGATIVE
Ionization: ESI
Collision energy: 40
Column name: NA
Retention time: 0.200 min
Base peak: 172.00819
Precursor m/z: 172.00819
Precursor type: [M-H]-
Precursor intensity: 121
m/z	relative intensity
79.9758	999
