Mass spectrum: ADP; LC-ESI-ITFT; MS2; CE: 10;  [M+H]+
Name: ADP
Class: Nucleosides, nucleotides, and analogues; Purine nucleotides; Purine ribonucleotides
Formula: C10H15N5O10P2
Exact mass: 427.02941
SMILES: NC1=NC=NC2=C1N=CN2[C@@H]1O[C@H](COP(O)(=O)OP(O)(O)=O)[C@@H](O)[C@H]1O
InChI: InChI=1S/C10H15N5O10P2/c11-8-5-9(13-2-12-8)15(3-14-5)10-7(17)6(16)4(24-10)1-23-27(21,22)25-26(18,19)20/h2-4,6-7,10,16-17H,1H2,(H,21,22)(H2,11,12,13)(H2,18,19,20)/t4-,6-,7-,10-/m1/s1
Instrument: Thermo Scientific Q-Exactive Focus
Instrument type: LC-ESI-ITFT
Ms type: MS2
Ion mode: POSITIVE
Ionization: ESI
Collision energy: 10
Column name: Acquity CSHC18
Retention time: 0.350 min
Base peak: 428.03668
Precursor m/z: 428.03668
Precursor type: [M+H]+
m/z	relative intensity
97.0286	3
136.0617	446
232.0826	3
330.0598	2
348.0699	81
427.5837	7
428.0365	999
428.0828	6
428.1003	2
428.5837	1
