Mass spectrum: Tifruticin, desoxy; LC-ESI-ITFT; MS2; CE: 50eV;  [M+H]+
Name: Tifruticin, desoxy
Class: Sesquiterpenelactone; Heliangolide
Formula: C20H26O6
Exact mass: 362.1729
SMILES: C/C=C(/C)\C(=O)O[C@@H]1C[C@@](/C=C/[C@@H](/C(=C\[C@@H]2[C@@H]1C(=C)C(=O)O2)/C)O)(C)O
InChI: InChI=1S/C20H26O6/c1-6-11(2)18(22)26-16-10-20(5,24)8-7-14(21)12(3)9-15-17(16)13(4)19(23)25-15/h6-9,14-17,21,24H,4,10H2,1-3,5H3/b8-7+,11-6-,12-9-/t14-,15+,16+,17-,20-/m0/s1
Instrument: Q Exactive Plus, ThermoFisher Scientific
Instrument type: LC-ESI-ITFT
Ms type: MS2
Ion mode: POSITIVE
Ionization: ESI
Collision energy: 50eV
Column name: Acquity CSHC18
Retention time: 6.421 min
Base peak: 363.1804
Precursor m/z: 363.1804
Precursor type: [M+H]+
Precursor intensity: 10686100
m/z	relative intensity
55.0553	454
57.6985	41
69.9174	68
83.0501	636
91.0548	48
97.4379	49
105.07	66
119.0499	63
119.0856	47
129.0693	66
131.0855	226
141.0693	62
142.0775	101
143.0851	439
145.1011	455
147.0806	59
153.0706	61
155.0858	214
156.0928	82
157.1018	364
159.0815	178
166.0769	99
168.0945	54
169.1015	96
171.0813	83
171.1172	999
173.0961	51
173.1328	78
181.1003	666
184.0886	47
185.0971	170
189.129	65
199.1109	659
201.1275	201
227.1076	105
245.1154	62
295.0286	45
328.5137	45
