Mass spectrum: Trehalose; ESI-TOF; MS2; CE: 6.0000000;  [M+H]+
Name: Trehalose
Class: NA
Formula: C12H22O11
Exact mass: 342.11621
SMILES: OCC1OC(OC2OC(CO)C(O)C(O)C2O)C(O)C(O)C1O
InChI: InChI=1S/C12H22O11/c13-1-3-5(15)7(17)9(19)11(21-3)23-12-10(20)8(18)6(16)4(2-14)22-12/h3-20H,1-2H2
Instrument: waters xevo g2 TOF
Instrument type: ESI-TOF
Ms type: MS2
Ion mode: POSITIVE
Ionization: ESI
Collision energy: 6.0000000
Column name: Acquity CSHC18
Retention time: 0.554 min
Base peak: 343.12421
Precursor m/z: 343.12421
Precursor type: [M+H]+
m/z	relative intensity
85.0294	547
95.9747	3
97.0295	319
99.0453	37
127.0401	830
143.9596	81
145.0505	770
174.9695	76
198.9694	3
233.9839	55
275.9936	3
275.9947	236
277.0024	80
289.0926	45
294.0028	37
325.1139	835
326.1183	102
360.151	725
361.1561	66
362.1005	74
365.106	999
366.1102	99
396.0356	740
397.0419	494
399.046	49
438.0537	83
505.1732	35
558.0907	42
618.1092	3
685.2401	44
702.264	40
707.2248	75
738.1501	339
