Mass spectrum: acteoside; LC-ESI-ITFT; MS2; CE: 0.3;  [M-H]-
Name: acteoside
Class: phenylpropanoid glycosides
Formula: C29H36O15
Exact mass: 624.2054
SMILES: CC1C(C(C(C(O1)OC2C(C(OC(C2OC(=O)C=CC3=CC(=C(C=C3)O)O)CO)OCCC4=CC(=C(C=C4)O)O)O)O)O)O
InChI: InChI=1S/C29H36O15/c1-13-22(36)23(37)24(38)29(41-13)44-27-25(39)28(40-9-8-15-3-6-17(32)19(34)11-15)42-20(12-30)26(27)43-21(35)7-4-14-2-5-16(31)18(33)10-14/h2-7,10-11,13,20,22-34,36-39H,8-9,12H2,1H3
Instrument: LTQ-Orbitrap XL hybrid mass spectrometer (Thermo Scientific)
Instrument type: LC-ESI-ITFT
Ms type: MS2
Ion mode: NEGATIVE
Ionization: ESI
Collision energy: 0.3
Column name: Acquity CSHC18
Retention time: 5.268 min
Base peak: 623.1968
Precursor m/z: 623.1968
Precursor type: [M-H]-
Precursor intensity: 13054120
m/z	relative intensity
167.1163	3
198.8055	1
217.365	1
249.5262	1
263.7574	1
275.853	1
278.4533	1
278.644	1
281.6773	1
286.9696	2
287.2444	2
315.1073	16
318.5767	1
324.2284	2
333.1884	1
339.4235	1
339.4596	1
340.1437	2
362.296	2
368.0511	1
375.4286	1
383.2116	2
396.0285	2
397.7273	2
427.2089	2
441.0932	2
443.1539	13
445.9293	2
447.3152	2
448.7063	2
451.2711	2
455.4704	3
456.8849	7
458.31	6
458.874	3
460.8588	2
460.8833	4
460.9744	5
461.004	6
461.0613	8
461.1656	999
461.2754	5
461.3025	7
461.3334	6
461.3632	4
461.3929	4
462.1694	47
464.0477	5
465.5051	7
466.3427	2
466.9566	3
472.7165	2
476.7708	2
477.139	12
478.2296	2
487.1488	4
488.8688	2
511.3331	3
514.647	2
526.8274	2
532.5286	2
532.6219	2
536.3522	2
542.3436	2
547.843	2
548.7553	2
551.035	2
552.5405	2
553.2472	3
562.0586	2
563.2297	3
612.5749	2
615.2352	2
616.9954	3
