Mass spectrum: L-Tyrosine; LC-ESI-QTOF; MS2; CE: 15.00;  [M+H]+
Name: L-Tyrosine
Class: NA
Formula: C9H11NO3
Exact mass: 181.0739
SMILES: C1=CC(=CC=C1CC(C(=O)O)N)O
InChI: InChI=1S/C9H11NO3/c10-8(9(12)13)5-6-1-3-7(11)4-2-6/h1-4,8,11H,5,10H2,(H,12,13)
Instrument: Bruker MicrOTOF-Q
Instrument type: LC-ESI-QTOF
Ms type: MS2
Ion mode: POSITIVE
Ionization: ESI
Collision energy: 15.00
Column name: Acquity CSHC18
Retention time: NA
Base peak: 182.0812
Precursor m/z: 182.0812
Precursor type: [M+H]+
m/z	relative intensity
51.9	10
65.03	10
66.02	10
69.06	10
74.86	10
77.65	10
89.03	10
91.105	643
92.05	82
93.06	10
94.06	10
95.05	803
95.91	46
103.05	123
104.205	10
106.06	10
107.05	175
108.08	30
109.06	226
110.07	20
111.64	10
114.55	10
117.06	30
118.06	216
119.04	388
120.17	108
121.2925	56
123.256	379
124.77	10
127.95	10
136.2884	458
138.08	20
138.935	10
139.72	10
147.154	393
148.05	154
151.03	10
165.05	999
165.57	10
166.06	113
168.18	10
175.97	10
182.08	30
251.81	10
275.8	10
314.87	10
444.02	10
648.71	10
