Mass spectrum: L-Threonine; LC-ESI-QTOF; MS2; CE: 15.00;  [M+H]+
Name: L-Threonine
Class: NA
Formula: C4H9NO3
Exact mass: 119.0582
SMILES: CC(C(C(=O)O)N)O
InChI: InChI=1S/C4H9NO3/c1-2(6)3(5)4(7)8/h2-3,6H,5H2,1H3,(H,7,8)
Instrument: Bruker MicrOTOF-Q
Instrument type: LC-ESI-QTOF
Ms type: MS2
Ion mode: POSITIVE
Ionization: ESI
Collision energy: 15.00
Column name: Acquity CSHC18
Retention time: NA
Base peak: 120.0655
Precursor m/z: 120.0655
Precursor type: [M+H]+
m/z	relative intensity
102.0482	999
103.0529	188
105.0629	71
120.0635	160
