Mass spectrum: INOSINE-MONOPHOSPHATE; LC-ESI-QFT; MS2; CE: 30eV;  [M-H]-
Name: INOSINE-MONOPHOSPHATE
Class: NA
Formula: C10H13N4O8P
Exact mass: 348.04710
SMILES: O[C@@H]1[C@@H](COP(O)(O)=O)O[C@H]([C@@H]1O)N1C=NC2=C1N=CNC2=O
InChI: InChI=1S/C10H13N4O8P/c15-6-4(1-21-23(18,19)20)22-10(7(6)16)14-3-13-5-8(14)11-2-12-9(5)17/h2-4,6-7,10,15-16H,1H2,(H,11,12,17)(H2,18,19,20)/t4-,6-,7-,10-/m1/s1
Instrument: Q-Exactive Orbitrap, Thermo Scientfic; Ultimate 3000 HPLC, Thermo Scientfic
Instrument type: LC-ESI-QFT
Ms type: MS2
Ion mode: NEGATIVE
Ionization: ESI
Collision energy: 30eV
Column name: Acquity CSHC18
Retention time: 0.683 min
Base peak: 347.0398
Precursor m/z: 347.0398
Precursor type: [M-H]-
Precursor intensity: 193
m/z	relative intensity
50.8618	1
51.1973	1
51.5935	1
54.6103	1
61.0753	1
62.9624	1
64.6896	1
72.1902	1
77.5751	1
78.9574	999
84.1942	1
87.5175	1
91.6502	1
92.0237	2
96.968	501
99.9076	1
116.1198	1
119.9387	1
135.0297	187
136.033	1
138.9786	31
150.9788	60
162.9787	2
169.9531	1
170.6921	1
176.9819	1
177.0408	2
183.0468	1
184.1089	1
190.8732	1
192.8132	1
192.9898	33
211.0004	75
239.7803	1
247.6496	1
261.477	1
299.577	1
347.0397	150
348.0429	9
364.117	1
