Mass spectrum: dihydroorotic acid; LC-ESI-QTOF; MS2; CE: -10, -35, -60V;  [M-H]-
Name: dihydroorotic acid
Class: NA
Formula: C5H6N2O4
Exact mass: 158.0328
SMILES: C1C(NC(=O)NC1=O)C(=O)O
InChI: InChI=1S/C5H6N2O4/c8-3-1-2(4(9)10)6-5(11)7-3/h2H,1H2,(H,9,10)(H2,6,7,8,11)
Instrument: TripleToF 5600; Sciex
Instrument type: LC-ESI-QTOF
Ms type: MS2
Ion mode: NEGATIVE
Ionization: ESI
Collision energy: -10, -35, -60V
Column name: Acquity CSHC18
Retention time: 3.376 min
Base peak: 157.0254
Precursor m/z: 157.0254
Precursor type: [M-H]-
Precursor intensity: 803884.1
m/z	relative intensity
70.0294	773
71.0241	102
96.0078	60
113.0358	999
114.0181	254
157.0245	573
