Mass spectrum: Glucoiberin; LC-ESI-QTOF; MS2; CE: 18.31;  [M-O3S+H]+
Name: Glucoiberin
Class: NA
Formula: C11H21NO10S3
Exact mass: 423.0328
SMILES: CS(=O)CCCC(=NOS(=O)(=O)O)SC1C(C(C(C(O1)CO)O)O)O
InChI: InChI=1S/C11H21NO10S3/c1-24(17)4-2-3-7(12-22-25(18,19)20)23-11-10(16)9(15)8(14)6(5-13)21-11/h6,8-11,13-16H,2-5H2,1H3,(H,18,19,20)
Instrument: Bruker MicrOTOF-Q
Instrument type: LC-ESI-QTOF
Ms type: MS2
Ion mode: POSITIVE
Ionization: ESI
Collision energy: 18.31
Column name: Acquity CSHC18
Retention time: NA
Base peak: 344.0832
Precursor m/z: 344.0832
Precursor type: [M-O3S+H]+
m/z	relative intensity
117.0324	9
118.0297	999
119.0317	59
120.0276	53
145.0481	14
164.0177	8
165.0027	4
182.0295	385
183.0327	21
184.0293	30
247.0623	19
247.1219	5
