Mass spectrum: GLUCOSAMINE 6-PHOSPHATE; LC-ESI-QFT; MS2; CE: 30eV;  [M-H]-
Name: GLUCOSAMINE 6-PHOSPHATE
Class: NA
Formula: C6H14NO8P
Exact mass: 259.04570
SMILES: N[C@H]1[C@@H](O)O[C@H](COP(O)(O)=O)[C@@H](O)[C@@H]1O
InChI: InChI=1S/C6H14NO8P/c7-3-5(9)4(8)2(15-6(3)10)1-14-16(11,12)13/h2-6,8-10H,1,7H2,(H2,11,12,13)/t2-,3-,4-,5-,6+/m1/s1
Instrument: Q-Exactive Orbitrap, Thermo Scientfic; Ultimate 3000 HPLC, Thermo Scientfic
Instrument type: LC-ESI-QFT
Ms type: MS2
Ion mode: NEGATIVE
Ionization: ESI
Collision energy: 30eV
Column name: Acquity CSHC18
Retention time: 0.583 min
Base peak: 258.0384
Precursor m/z: 258.0384
Precursor type: [M-H]-
Precursor intensity: 110
m/z	relative intensity
62.9622	1
75.9504	1
78.9574	354
96.9679	999
99.776	1
102.9471	15
114.8168	1
123.8829	1
125.8716	5
134.7393	1
138.9787	56
144.988	1
145.9402	1
146.9371	24
150.44	1
150.9788	1
156.1995	1
164.3598	1
167.9946	1
168.9819	4
168.989	3
169.8756	1
170.9978	2
178.9251	4
183.9895	5
186.9923	1
196.9894	1
199.0003	72
211.9843	1
212.983	1
214.0004	15
214.9982	2
222.0166	1
229.9957	12
230.9938	1
240.0272	53
241.03	1
257.962	4
258.038	46
