Mass spectrum: L-Norleucine; LC-ESI-ITFT; MS2; CE: 40;  [M+H]+
Name: L-Norleucine
Class: Organic acids and derivatives; Carboxylic acids and derivatives; Amino acids, peptides, and analogues
Formula: C6H13NO2
Exact mass: 131.09463
SMILES: CCCC[C@H](N)C(O)=O
InChI: InChI=1S/C6H13NO2/c1-2-3-4-5(7)6(8)9/h5H,2-4,7H2,1H3,(H,8,9)/t5-/m0/s1
Instrument: Thermo Scientific Q-Exactive Focus
Instrument type: LC-ESI-ITFT
Ms type: MS2
Ion mode: POSITIVE
Ionization: ESI
Collision energy: 40
Column name: Acquity CSHC18
Retention time: 1.463 min
Base peak: 132.10191
Precursor m/z: 132.10191
Precursor type: [M+H]+
m/z	relative intensity
53.0027	435
57.611	363
57.9354	527
59.9308	566
74.7707	346
79.2748	363
82.0578	366
82.5944	433
92.5244	999
92.7604	476
