Mass spectrum: Pentagalloylglucose; LC-ESI-QTOF; MS2; CE: 50eV;  [M-2H]2-
Name: Pentagalloylglucose
Class: Benzoic acid
Formula: C41H32O26
Exact mass: 940.1182
SMILES: C1=C(C=C(C(=C1O)O)O)C(=O)OCC2C(C(C(C(O2)OC(=O)C3=CC(=C(C(=C3)O)O)O)OC(=O)C4=CC(=C(C(=C4)O)O)O)OC(=O)C5=CC(=C(C(=C5)O)O)O)OC(=O)C6=CC(=C(C(=C6)O)O)O
InChI: InChI=1S/C41H32O26/c42-17-1-12(2-18(43)28(17)52)36(57)62-11-27-33(64-37(58)13-3-19(44)29(53)20(45)4-13)34(65-38(59)14-5-21(46)30(54)22(47)6-14)35(66-39(60)15-7-23(48)31(55)24(49)8-15)41(63-27)67-40(61)16-9-25(50)32(56)26(51)10-16/h1-10,27,33-35,41-56H,11H2
Instrument: TIMS-TOF Pro, Bruker Daltonik; Elute UHPLC System, Bruker Daltonik
Instrument type: LC-ESI-QTOF
Ms type: MS2
Ion mode: NEGATIVE
Ionization: ESI
Collision energy: 50eV
Column name: Acquity CSHC18
Retention time: 5.208 min
Base peak: 469.0440
Precursor m/z: 469.0440
Precursor type: [M-2H]2-
Precursor intensity: 115233.6
m/z	relative intensity
112.4861	895
151.7865	999
214.0116	895
385.5432	895
