Mass spectrum: CTP; LC-ESI-QTOF; MS2; CE: 30;  [M+H]+
Name: CTP
Class: Pentose phosphates
Formula: C9H16N3O14P3
Exact mass: 482.98451
SMILES: NC1=NC(=O)N(C=C1)[C@@H]1O[C@H](COP(O)(=O)OP(O)(=O)OP(O)(O)=O)[C@@H](O)[C@H]1O
InChI: InChI=1S/C9H16N3O14P3/c10-5-1-2-12(9(15)11-5)8-7(14)6(13)4(24-8)3-23-28(19,20)26-29(21,22)25-27(16,17)18/h1-2,4,6-8,13-14H,3H2,(H,19,20)(H,21,22)(H2,10,11,15)(H2,16,17,18)/t4-,6-,7-,8-/m1/s1
Instrument: impact II
Instrument type: LC-ESI-QTOF
Ms type: MS2
Ion mode: POSITIVE
Ionization: ESI
Collision energy: 30
Column name: Acquity CSHC18
Retention time: 1.790 min
Base peak: 483.99190
Precursor m/z: 483.99190
Precursor type: [M+H]+
m/z	relative intensity
45.0341	4
89.0601	3
94.0402	6
95.024	23
97.0285	81
98.0319	7
98.9833	2
112.0504	999
112.0633	82
112.0762	1
112.098	3
112.1194	8
112.1267	9
112.1354	15
112.1514	4
112.1869	2
112.1945	3
112.2344	1
112.3595	1
113.0535	62
114.0553	3
115.0383	1
133.0857	5
177.1117	4
178.9497	1
192.0168	6
208.0713	34
209.075	6
226.0818	6
258.9167	10
271.9818	3
283.1753	3
288.0377	2
306.0479	4
324.0577	3
386.0161	1
404.027	2
481.2601	1
482.2682	2
485.3577	3
