Mass spectrum: Cystathionine; LC-ESI-ITFT; MS2; CE: 45eV;  [M+H]+
Name: Cystathionine
Class: aminoacid
Formula: C7H14N2O4S
Exact mass: 222.0674
SMILES: C(CSCC(C(=O)O)N)C(C(=O)O)N
InChI: InChI=1S/C7H14N2O4S/c8-4(6(10)11)1-2-14-3-5(9)7(12)13/h4-5H,1-3,8-9H2,(H,10,11)(H,12,13)
Instrument: LTQ Orbitrap XL, Thermo Scientfic; Dionex Ultimate 300
Instrument type: LC-ESI-ITFT
Ms type: MS2
Ion mode: POSITIVE
Ionization: ESI
Collision energy: 45eV
Column name: Alltima C18
Retention time: 2.1 min
Base peak: 223.0732
Precursor m/z: 223.0732
Precursor type: [M+H]+
m/z	relative intensity
74.1336	5
117.9713	165
150.825	15
204.9284	999
