Mass spectrum: Feruloyltyramine; LC-ESI-QTOF; MS2; CE: 20-40eV;  [M+H]+
Name: Feruloyltyramine
Class: Hydroxycinnamic acids and derivatives
Formula: C18H19NO4
Exact mass: 313.1314
SMILES: COC=1C=C(C=CC1O)C(=C(C(=NCCC2=CC=C(C=C2)O)O)[H])[H]
InChI: InChI=1S/C18H19NO4/c1-23-17-12-14(4-8-16(17)21)5-9-18(22)19-11-10-13-2-6-15(20)7-3-13/h2-9,12,20-21H,10-11H2,1H3,(H,19,22)
Instrument: Impact II, Bruker; Dionex 3000, Thermo Scientific
Instrument type: LC-ESI-QTOF
Ms type: MS2
Ion mode: POSITIVE
Ionization: ESI
Collision energy: 20-40eV
Column name: Acquity CSHC18
Retention time: 7.159 min
Base peak: 314.1394
Precursor m/z: 314.1394
Precursor type: [M+H]+
Precursor intensity: 56071.63
m/z	relative intensity
95.0482	27
103.0537	141
105.0441	18
106.0404	27
108.0199	5
116.1068	4
117.0329	121
118.0379	4
121.0642	361
122.0676	18
124.0539	4
134.0375	10
136.0519	6
142.6909	4
145.0276	141
146.0296	8
149.0589	33
177.0546	999
177.1507	4
178.058	104
179.0601	5
180.0615	8
194.0819	19
221.1006	7
314.1388	264
