Mass spectrum: 3-Hydroxytyramine; LC-ESI-QTOF; MS2; CE: 15;  [M-H]-
Name: 3-Hydroxytyramine
Class: NA
Formula: C8H11NO2
Exact mass: 153.0790
SMILES: C1=CC(=C(C=C1CCN)O)O
InChI: InChI=1S/C8H11NO2/c9-4-3-6-1-2-7(10)8(11)5-6/h1-2,5,10-11H,3-4,9H2
Instrument: Bruker MicrOTOF-Q
Instrument type: LC-ESI-QTOF
Ms type: MS2
Ion mode: NEGATIVE
Ionization: ESI
Collision energy: 15
Column name: Acquity CSHC18
Retention time: NA
Base peak: 152.0717
Precursor m/z: 152.0717
Precursor type: [M-H]-
m/z	relative intensity
52.6448	24
55.0515	24
57.1401	16
62.957	19
65.4218	16
65.5594	19
65.609	14
69.5282	20
82.6992	13
92.3837	20
95.6687	21
97.3573	19
102.7304	23
108.0061	24
109.9963	25
112.002	20
113.2078	17
114.7225	19
117.3797	22
121.6687	24
121.7183	21
122.038	999
122.1724	17
122.2721	11
122.4505	12
123.0423	88
124.0098	25
124.3798	11
136.9116	18
141.8313	23
147.2327	17
151.2895	22
152.0714	168
153.0735	14
166.9435	12
201.4368	20
227.2909	22
292.4942	11
296.3108	12
370.3986	13
415.7447	12
540.3373	15
728.0708	13
834.5371	11
905.1145	20
954.7138	20
