Mass spectrum: N-2-Brom-benzyliden-solanocapsin; APCI-ITFT; MS2; CE: CID 35;  [M-H]-
Name: N-2-Brom-benzyliden-solanocapsin
Class: NA
Formula: C34H49BrN2O2
Exact mass: 596.29774
SMILES: C[C@@H]7C[C@]6([C@@H]([C@@H](C)[C@H]3[C@@H](C[C@H]4[C@@H]2CC[C@H]1C[C@H](CC[C@]1(C)[C@H]2CC[C@]34C)N=C(C5=CC=CC=C5Br)[H])O6)N(C7)[H])O[H]
InChI: InChI=1S/C34H49BrN2O2/c1-20-17-34(38)31(37-18-20)21(2)30-29(39-34)16-27-25-10-9-23-15-24(36-19-22-7-5-6-8-28(22)35)11-13-32(23,3)26(25)12-14-33(27,30)4/h5-8,19-21,23-27,29-31,37-38H,9-18H2,1-4H3/t20-,21+,23+,24+,25-,26+,27+,29-,30+,31-,32+,33+,34+/m1/s1
Instrument: Orbitrap Elite
Instrument type: APCI-ITFT
Ms type: MS2
Ion mode: NEGATIVE
Ionization: APCI
Collision energy: CID 35
Column name: Acquity CSHC18
Retention time: 0.142 min
Base peak: 595.29160
Precursor m/z: 595.29160
Precursor type: [M-H]-
Precursor intensity: 448366.6
m/z	relative intensity
440.157	52
454.1753	90
456.091	18
456.1764	634
466.1723	35
480.1912	51
482.1942	452
484.2217	68
496.2241	24
511.228	115
527.1777	39
557.356	62
559.3804	42
561.2493	55
567.2972	18
575.2594	339
577.2706	743
579.2579	999
593.2578	46
595.267	149
