Mass spectrum: N-Formyl-L-methionine; ESI-TOF; MS2; CE: 0.6458333;  [M+H]+
Name: N-Formyl-L-methionine
Class: NA
Formula: C6H11NO3S
Exact mass: 177.04596
SMILES: CSCCC(NC=O)C(O)=O
InChI: InChI=1S/C6H11NO3S/c1-11-3-2-5(6(9)10)7-4-8/h4-5H,2-3H2,1H3,(H,7,8)(H,9,10)
Instrument: waters xevo g2 TOF
Instrument type: ESI-TOF
Ms type: MS2
Ion mode: POSITIVE
Ionization: ESI
Collision energy: 0.6458333
Column name: Acquity CSHC18
Retention time: 1.803 min
Base peak: 178.05396
Precursor m/z: 178.05396
Precursor type: [M+H]+
m/z	relative intensity
61.0114	48
78.997	23
84.045	740
87.0272	128
98.961	57
102.055	87
104.0529	250
106.0496	3
109.9913	100
113.964	3
125.5291	3
130.0502	172
131.0535	3
133.032	162
137.988	3
139.9792	46
140.9873	540
144.066	3
150.0588	3
151.0615	3
152.0553	3
160.0435	3
168.9658	115
172.0109	776
172.9777	3
178.0534	3
182.0145	3
184.0623	3
185.9882	48
187.983	999
189.9838	272
191.9784	117
200.0354	49
201.0392	3
202.0324	3
204.9863	131
213.0378	3
217.1051	3
219.002	3
220.0226	149
228.0036	3
229.0099	13
231.0093	3
231.9981	94
232.9809	3
233.9753	34
248.0181	3
252.1515	3
257.0286	3
258.0297	3
259.0224	195
261.1305	3
262.9906	3
272.0282	32
273.0371	20
303.0121	58
304.213	3
316.0183	31
319.0468	48
321.0396	3
364.0215	23
377.0757	3
378.0811	3
379.0597	3
380.0622	3
381.052	3
393.0462	196
394.0485	31
399.0634	3
404.0106	3
406.0132	3
407.0202	3
408.012	3
409.0172	3
410.0142	3
411.018	3
412.0208	3
413.015	3
451.9711	72
462.9327	52
570.0964	3
607.0396	3
