Mass spectrum: Prostaglandin A1; ESI-TOF; MS2; CE: 6.0000000;  [M+H]+
Name: Prostaglandin A1
Class: NA
Formula: C20H32O4
Exact mass: 336.23006
SMILES: CCCCCC(C=CC1C=CC(=O)C1CCCCCCC(=O)O)O
InChI: InChI=1S/C20H32O4/c1-2-3-6-9-17(21)14-12-16-13-15-19(22)18(16)10-7-4-5-8-11-20(23)24/h12-18,21H,2-11H2,1H3,(H,23,24)
Instrument: waters xevo g2 TOF
Instrument type: ESI-TOF
Ms type: MS2
Ion mode: POSITIVE
Ionization: ESI
Collision energy: 6.0000000
Column name: Acquity CSHC18
Retention time: 3.943 min
Base peak: 337.23806
Precursor m/z: 337.23806
Precursor type: [M+H]+
m/z	relative intensity
119.0504	1
125.9862	2
131.0865	7
141.1282	5
159.118	1
163.042	5
173.1334	45
174.1368	5
179.0904	7
181.9317	1
185.1327	7
187.1479	9
189.1256	2
193.1236	8
203.1426	3
204.1092	2
209.1334	1
217.1391	1
223.1457	1
239.1622	8
245.1553	3
249.0797	7
255.2117	10
265.1952	10
273.2209	42
274.2235	5
283.2057	73
301.1652	999
302.2202	430
303.2233	47
304.2997	8
305.3016	2
319.2271	526
320.2298	111
321.2345	10
330.2089	2
333.2417	8
337.2339	3
338.2009	75
338.7016	34
339.1997	5
