Mass spectrum: HOMOCYSTINE; LC-ESI-QFT; MS2; CE: 30eV;  [M+H]+
Name: HOMOCYSTINE
Class: NA
Formula: C8H16N2O4S2
Exact mass: 268.05515
SMILES: NC(CCSSCCC(N)C(O)=O)C(O)=O
InChI: InChI=1S/C8H16N2O4S2/c9-5(7(11)12)1-3-15-16-4-2-6(10)8(13)14/h5-6H,1-4,9-10H2,(H,11,12)(H,13,14)
Instrument: Q-Exactive Orbitrap, Thermo Scientfic; Ultimate 3000 HPLC, Thermo Scientfic
Instrument type: LC-ESI-QFT
Ms type: MS2
Ion mode: POSITIVE
Ionization: ESI
Collision energy: 30eV
Column name: Acquity CSHC18
Retention time: 0.648 min
Base peak: 269.0624
Precursor m/z: 269.0624
Precursor type: [M+H]+
Precursor intensity: 133
m/z	relative intensity
51.9935	1
52.2739	1
53.3068	1
55.2196	1
56.0504	20
57.816	1
64.0704	1
68.6962	2
73.0114	2
79.1772	2
88.0194	5
88.0223	333
90.0379	441
91.0413	2
92.6181	2
93.4512	2
106.7084	2
118.0327	231
134.0275	876
135.0308	13
136.0431	999
137.0464	12
146.4851	2
171.4782	1
174.4197	2
234.8172	2
283.4758	1
