Mass spectrum: H-Leu-Leu-OH; LC-ESI-QTOF; MS2; CE: 29.05;  [2M-H]-
Name: H-Leu-Leu-OH
Class: NA
Formula: C12H24N2O3
Exact mass: 244.1787
SMILES: CC(C)CC(C(=O)NC(CC(C)C)C(=O)O)N
InChI: InChI=1S/C12H24N2O3/c1-7(2)5-9(13)11(15)14-10(12(16)17)6-8(3)4/h7-10H,5-6,13H2,1-4H3,(H,14,15)(H,16,17)
Instrument: Bruker MicrOTOF-Q
Instrument type: LC-ESI-QTOF
Ms type: MS2
Ion mode: NEGATIVE
Ionization: ESI
Collision energy: 29.05
Column name: Acquity CSHC18
Retention time: NA
Base peak: 487.3501
Precursor m/z: 487.3501
Precursor type: [2M-H]-
m/z	relative intensity
65.56	1
112.08	1
114.1	1
129.1	7
129.61	1
129.66	1
129.77	1
129.92	1
130.09	85
131.09	7
132.09	1
141.1	1
170.16	1
182.15	8
183.16	1
195.15	1
197.17	3
198.16	1
198.43	2
198.51	1
198.6	1
198.68	1
198.75	1
199.18	264
199.36	1
199.48	1
199.62	1
199.73	1
199.82	1
199.92	1
200.06	1
200.18	33
201.07	1
201.19	3
225.16	6
241.93	1
242.01	1
242.24	5
242.43	2
242.56	4
242.67	2
243.17	999
243.38	3
243.44	3
243.54	3
243.65	3
243.72	2
243.9	2
244.17	155
244.4	1
244.45	1
244.56	1
244.72	1
244.78	1
244.84	1
244.98	1
245.18	17
246.18	1
