Mass spectrum: desmosterol; ESI-TOF; MS2; CE: 0.6458333;  [M+H]+
Name: desmosterol
Class: NA
Formula: C27H44O
Exact mass: 384.33922
SMILES: [H]OC4([H])(C([H])([H])C3=C([H])C([H])([H])C1([H])(C([H])(C([H])([H])C([H])([H])C2(C([H])([H])[H])(C([H])(C([H])([H])C([H])([H])C12([H]))C([H])(C([H])([H])[H])C([H])([H])C([H])([H])C([H])=C(C([H])([H])[H])C([H])([H])[H]))C3(C([H])([H])[H])C([H])([H])C4([H])([H])))
InChI: InChI=1S/C27H44O/c1-18(2)7-6-8-19(3)23-11-12-24-22-10-9-20-17-21(28)13-15-26(20,4)25(22)14-16-27(23,24)5/h7,9,19,21-25,28H,6,8,10-17H2,1-5H3
Instrument: waters xevo g2 TOF
Instrument type: ESI-TOF
Ms type: MS2
Ion mode: POSITIVE
Ionization: ESI
Collision energy: 0.6458333
Column name: Acquity CSHC18
Retention time: 10.272 min
Base peak: 385.34722
Precursor m/z: 385.34722
Precursor type: [M+H]+
m/z	relative intensity
81.071	177
91.0544	48
93.0702	112
95.0861	258
105.0702	158
107.086	165
109.1014	234
119.0855	136
121.1016	142
123.1173	79
125.9866	3
133.1018	170
135.1175	261
137.1328	67
147.1168	358
149.1331	148
159.1169	164
161.1332	315
163.1478	82
173.1322	108
175.149	129
187.1478	71
203.1794	1
215.1789	52
217.1947	24
229.1959	42
231.2108	1
243.2125	51
255.2106	1
257.2291	61
271.2049	79
271.246	1
283.2413	36
285.259	78
367.3369	999
368.3402	323
369.3436	42
383.3304	1
404.321	57
407.3292	122
408.3309	35
423.2948	152
469.3012	56
596.4905	1
788.6582	1
789.163	34
789.665	1
790.1643	1
791.6696	1
792.6688	1
792.6741	1
807.6321	102
808.6349	65
981.3363	1
981.8397	1
