Mass spectrum: 1-deoxysphinganine (m18:0); ESI-TOF; MS2; CE: 0.6458333;  [M+H]+
Name: 1-deoxysphinganine (m18:0)
Class: NA
Formula: C18H39NO
Exact mass: 285.30316
SMILES: [H]OC([H])(C([H])([H])C([H])([H])C([H])([H])C([H])([H])C([H])([H])C([H])([H])C([H])([H])C([H])([H])C([H])([H])C([H])([H])C([H])([H])C([H])([H])C([H])([H])C([H])([H])C([H])([H])[H])C([H])(N([H])[H])C([H])([H])[H]
InChI: InChI=1S/C18H39NO/c1-3-4-5-6-7-8-9-10-11-12-13-14-15-16-18(20)17(2)19/h17-18,20H,3-16,19H2,1-2H3
Instrument: waters xevo g2 TOF
Instrument type: ESI-TOF
Ms type: MS2
Ion mode: POSITIVE
Ionization: ESI
Collision energy: 0.6458333
Column name: Acquity CSHC18
Retention time: 4.417 min
Base peak: 286.31116
Precursor m/z: 286.31116
Precursor type: [M+H]+
m/z	relative intensity
55.0556	1
57.0709	3
58.066	2
69.0707	39
70.0743	2
71.0865	7
83.0862	46
84.0902	3
85.1021	9
95.0862	1
97.1017	50
98.1049	3
111.1176	16
112.1211	1
125.1333	2
212.2367	1
226.2534	3
268.3006	999
269.3029	215
270.3049	21
271.3106	1
282.3139	1
284.2952	5
286.3112	32
287.3147	7
296.3309	9
297.3337	2
308.2927	5
309.2951	1
314.342	3
370.2629	1
625.5221	2
629.5291	1
649.5144	1
1011.7503	1
