Mass spectrum: Nicotianoside VI; LC-ESI-QTOF; MS2; CE: 40eV;  [M+NH4]+
Name: Nicotianoside VI
Class: Diterpene
Formula: C47H76O24
Exact mass: 1024.4727
SMILES: O=C(O)CC(=O)OC[C@H]1O[C@@H](OCC(/C)=C\CCC(\C)=C\CCC(\C)=C\CC[C@](C)(O[C@@H]2O[C@H](CO)[C@@H](O[C@@H]3O[C@@H](C)[C@H](O)[C@@H](O)[C@H]3O)[C@H](O)[C@H]2O)C=C)[C@H](OC2O[C@H](CO)[C@@H](O)[C@H](O)[C@H]2O)[C@@H](O)[C@@H]1O
InChI: InChI=1S/C47H76O24/c1-7-47(6,71-45-40(62)37(59)41(27(19-49)67-45)69-43-38(60)34(56)31(53)25(5)65-43)16-10-15-23(3)12-8-11-22(2)13-9-14-24(4)20-64-46-42(70-44-39(61)35(57)32(54)26(18-48)66-44)36(58)33(55)28(68-46)21-63-30(52)17-29(50)51/h7,11,14-15,25-28,31-46,48-49,53-62H,1,8-10,12-13,16-21H2,2-6H3,(H,50,51)/b22-11+,23-15+,24-14-/t25-,26+,27+,28+,31-,32+,33+,34+,35-,36-,37+,38+,39+,40+,41+,42+,43-,44?,45-,46+,47+/m0/s1
Instrument: Impact II qTOF
Instrument type: LC-ESI-QTOF
Ms type: MS2
Ion mode: POSITIVE
Ionization: ESI
Collision energy: 40eV
Column name: Acquity CSH C18 column (particle size 1.7 μm, column length 2.1 × 50 mm) (Waters)
Retention time: 6.8 min
Base peak: 1042.5108
Precursor m/z: 1042.5108
Precursor type: [M+NH4]+
m/z	relative intensity
215.1794	221
249.0617	500
271.2424	999
272.2455	190
309.1179	229
359.0976	195
395.1177	210
