Mass spectrum: L-Serine; LC-ESI-ITFT; MS2; CE: 20;  [M+H]+
Name: L-Serine
Class: Organic acids and derivatives; Carboxylic acids and derivatives; Amino acids, peptides, and analogues
Formula: C3H7NO3
Exact mass: 105.04259
SMILES: N[C@@H](CO)C(O)=O
InChI: InChI=1S/C3H7NO3/c4-2(1-5)3(6)7/h2,5H,1,4H2,(H,6,7)/t2-/m0/s1
Instrument: Thermo Scientific Q-Exactive Focus
Instrument type: LC-ESI-ITFT
Ms type: MS2
Ion mode: POSITIVE
Ionization: ESI
Collision energy: 20
Column name: Acquity CSHC18
Retention time: 0.630 min
Base peak: 106.04987
Precursor m/z: 106.04987
Precursor type: [M+H]+
m/z	relative intensity
60.045	999
65.7593	2
70.0293	15
78.4418	2
81.2957	2
88.0397	29
88.8881	2
92.5241	4
116.9953	2
120.5803	2
