Mass spectrum: 1-METHYL-L-HISTIDINE; LC-ESI-QTOF; MS2; CE: 20;  [M+H]+
Name: 1-METHYL-L-HISTIDINE
Class: NA
Formula: C7H11N3O2
Exact mass: 169.0851
SMILES: CN1C=NC(C[C@H](N)C(O)=O)=C1
InChI: InChI=1S/C7H11N3O2/c1-10-3-5(9-4-10)2-6(8)7(11)12/h3-4,6H,2,8H2,1H3,(H,11,12)/t6-/m0/s1
Instrument: Agilent 6530Â Q-TOF LC/MS
Instrument type: LC-ESI-QTOF
Ms type: MS2
Ion mode: POSITIVE
Ionization: ESI
Collision energy: 20
Column name: NA
Retention time: 0.200 min
Base peak: 170.09324
Precursor m/z: 170.09324
Precursor type: [M+H]+
Precursor intensity: 73.5
m/z	relative intensity
41.035	36
42.0342	38
54.0354	41
56.0493	43
68.0503	61
81.0454	66
82.0465	72
83.0594	98
96.0667	126
97.0736	188
107.0572	222
109.0732	244
124.0848	400
170.0861	999
