Mass spectrum: Sucrose; LC-ESI-QTOF; MS2; CE: 20-40eV;  [M+H]+
Name: Sucrose
Class: Sugar
Formula: C12H22O11
Exact mass: 342.1162
SMILES: C(C1(C(C(C(C(O1)(OC2(CO)C(C(C(CO)(O2)[H])(O)[H])(O)[H])[H])(O)[H])(O)[H])(O)[H])[H])O
InChI: InChI=1S/C12H22O11/c13-1-4-6(16)8(18)9(19)11(21-4)23-12(3-15)10(20)7(17)5(2-14)22-12/h4-11,13-20H,1-3H2
Instrument: Impact II, Bruker; Dionex 3000, Thermo Scientific
Instrument type: LC-ESI-QTOF
Ms type: MS2
Ion mode: POSITIVE
Ionization: ESI
Collision energy: 20-40eV
Column name: Acquity CSHC18
Retention time: 0.682 min
Base peak: 343.1223
Precursor m/z: 343.1223
Precursor type: [M+H]+
Precursor intensity: 18302.5
m/z	relative intensity
97.0272	436
116.9637	236
166.05	343
184.0596	999
242.0136	297
242.9963	255
