Mass spectrum: GLUCOSAMINE 6-PHOSPHATE; LC-ESI-QTOF; MS2; CE: 20;  [M-H]-
Name: GLUCOSAMINE 6-PHOSPHATE
Class: NA
Formula: C6H14NO8P
Exact mass: 259.04570
SMILES: N[C@H]1[C@@H](O)O[C@H](COP(O)(O)=O)[C@@H](O)[C@@H]1O
InChI: InChI=1S/C6H14NO8P/c7-3-5(9)4(8)2(15-6(3)10)1-14-16(11,12)13/h2-6,8-10H,1,7H2,(H2,11,12,13)/t2-,3-,4-,5-,6+/m1/s1
Instrument: Agilent 6530Â Q-TOF LC/MS
Instrument type: LC-ESI-QTOF
Ms type: MS2
Ion mode: NEGATIVE
Ionization: ESI
Collision energy: 20
Column name: NA
Retention time: 0.200 min
Base peak: 258.04275
Precursor m/z: 258.04275
Precursor type: [M-H]-
Precursor intensity: 188
m/z	relative intensity
78.9786	746
96.9865	999
