Mass spectrum: 3,4-Dihydroxybenzaldehyde; LC-ESI-QTOF; MS2; CE: 50eV;  [M-H]-
Name: 3,4-Dihydroxybenzaldehyde
Class: Benzaldehyde derivative
Formula: C7H6O3
Exact mass: 138.0317
SMILES: C1=CC(=C(C=C1C=O)O)O
InChI: InChI=1S/C7H6O3/c8-4-5-1-2-6(9)7(10)3-5/h1-4,9-10H
Instrument: TIMS-TOF Pro, Bruker Daltonik; Elute UHPLC System, Bruker Daltonik
Instrument type: LC-ESI-QTOF
Ms type: MS2
Ion mode: NEGATIVE
Ionization: ESI
Collision energy: 50eV
Column name: Acquity CSHC18
Retention time: 3.937 min
Base peak: 137.0219
Precursor m/z: 137.0219
Precursor type: [M-H]-
Precursor intensity: 15539.67
m/z	relative intensity
54.1731	17
62.0138	9
65.0016	47
91.0145	19
92.0206	20
93.0337	15
108.0195	126
109.028	48
119.0113	18
136.0142	347
136.8779	13
137.0219	999
137.2046	13
