Mass spectrum: RAFFINOSE; LC-ESI-QFT; MS2; CE: 30eV;  [M-H]-
Name: RAFFINOSE
Class: NA
Formula: C18H32O16
Exact mass: 504.16903
SMILES: OC[C@H]1O[C@@](CO)(OC2O[C@H](COC3O[C@H](CO)[C@H](O)[C@H](O)[C@H]3O)[C@@H](O)[C@H](O)[C@H]2O)[C@@H](O)[C@@H]1O
InChI: InChI=1S/C18H32O16/c19-1-5-8(22)11(25)13(27)16(31-5)30-3-7-9(23)12(26)14(28)17(32-7)34-18(4-21)15(29)10(24)6(2-20)33-18/h5-17,19-29H,1-4H2/t5-,6-,7-,8+,9-,10-,11+,12+,13-,14-,15+,16?,17?,18+/m1/s1
Instrument: Q-Exactive Orbitrap, Thermo Scientfic; Ultimate 3000 HPLC, Thermo Scientfic
Instrument type: LC-ESI-QFT
Ms type: MS2
Ion mode: NEGATIVE
Ionization: ESI
Collision energy: 30eV
Column name: Acquity CSHC18
Retention time: 0.591 min
Base peak: 503.1617
Precursor m/z: 503.1617
Precursor type: [M-H]-
Precursor intensity: 167
m/z	relative intensity
50.9263	26
51.1456	22
52.0232	23
52.8896	26
53.4661	22
59.0123	609
59.6565	28
68.5419	27
71.0122	363
73.7369	26
87.0071	175
87.7385	30
89.0228	999
99.2439	33
101.0228	497
113.0229	297
113.6558	32
119.0333	164
131.0334	35
143.0336	57
149.0441	51
156.6436	30
161.0443	182
179.0549	537
193.3611	31
221.0659	643
222.0695	38
243.9635	34
289.5399	36
316.1623	30
522.8718	36
