Mass spectrum: UTP; LC-ESI-QTOF; MS2; CE: 60;  [M-H]-
Name: UTP
Class: Pyrimidine ribonucleoside triphosphates
Formula: C9H15N2O15P3
Exact mass: 483.9685
SMILES: O[C@H]1[C@@H](O)[C@@H](O[C@@H]1COP(O)(=O)OP(O)(=O)OP(O)(O)=O)N1C=CC(=O)NC1=O
InChI: InChI=1S/C9H15N2O15P3/c12-5-1-2-11(9(15)10-5)8-7(14)6(13)4(24-8)3-23-28(19,20)26-29(21,22)25-27(16,17)18/h1-2,4,6-8,13-14H,3H2,(H,19,20)(H,21,22)(H,10,12,15)(H2,16,17,18)/t4-,6-,7-,8-/m1/s1
Instrument: impact II
Instrument type: LC-ESI-QTOF
Ms type: MS2
Ion mode: NEGATIVE
Ionization: ESI
Collision energy: 60
Column name: Acquity CSHC18
Retention time: 1.787 min
Base peak: 482.9608
Precursor m/z: 482.9608
Precursor type: [M-H]-
m/z	relative intensity
78.959	999
158.9255	660
