Mass spectrum: C18:1 Dihydroceramide (d18:0/18:1(9Z)); ESI-TOF; MS2; CE: 0.6458333;  [M+H]+
Name: C18:1 Dihydroceramide (d18:0/18:1(9Z))
Class: NA
Formula: C36H71NO3
Exact mass: 565.54340
SMILES: [H]OC([H])([H])C([H])(N([H])C(=O)C([H])([H])C([H])([H])C([H])([H])C([H])([H])C([H])([H])C([H])([H])C([H])([H])C([H])=C([H])C([H])([H])C([H])([H])C([H])([H])C([H])([H])C([H])([H])C([H])([H])C([H])([H])C([H])([H])[H])C([H])(O[H])C([H])([H])C([H])([H])C([H])([H])C([H])([H])C([H])([H])C([H])([H])C([H])([H])C([H])([H])C([H])([H])C([H])([H])C([H])([H])C([H])([H])C([H])([H])C([H])([H])C([H])([H])[H]
InChI: InChI=1S/C36H71NO3/c1-3-5-7-9-11-13-15-17-18-20-22-24-26-28-30-32-36(40)37-34(33-38)35(39)31-29-27-25-23-21-19-16-14-12-10-8-6-4-2/h17-18,34-35,38-39H,3-16,19-33H2,1-2H3,(H,37,40)
Instrument: waters xevo g2 TOF
Instrument type: ESI-TOF
Ms type: MS2
Ion mode: POSITIVE
Ionization: ESI
Collision energy: 0.6458333
Column name: Acquity CSHC18
Retention time: 11.115 min
Base peak: 566.55140
Precursor m/z: 566.55140
Precursor type: [M+H]+
m/z	relative intensity
95.0859	10
97.1023	10
109.1016	7
126.9526	6
247.2441	8
265.2526	10
266.2849	112
267.2882	23
278.7438	9
282.2799	37
284.2958	219
285.2984	43
302.3064	72
302.7534	21
303.2555	9
320.2253	8
346.2415	37
347.2442	8
362.215	14
366.1984	12
530.5299	46
531.531	13
537.3959	6
542.373	8
546.9469	7
548.5404	999
549.5438	420
550.5476	82
551.5504	11
566.5513	651
567.5548	256
