Mass spectrum: DHEAS; LC-ESI-QFT; MS2; CE: 30eV;  [M-H]-
Name: DHEAS
Class: NA
Formula: C19H28O5S
Exact mass: 368.16574
SMILES: C[C@]12CC[C@H]3[C@H]([C@@H]1CCC2=O)CC=C4[C@@]3(CC[C@@H](C4)OS(=O)(=O)O)C
InChI: InChI=1S/C19H28O5S/c1-18-9-7-13(24-25(21,22)23)11-12(18)3-4-14-15-5-6-17(20)19(15,2)10-8-16(14)18/h3,13-16H,4-11H2,1-2H3,(H,21,22,23)/t13-,14-,15-,16-,18-,19-/m0/s1
Instrument: Q-Exactive Orbitrap, Thermo Scientfic; Ultimate 3000 HPLC, Thermo Scientfic
Instrument type: LC-ESI-QFT
Ms type: MS2
Ion mode: NEGATIVE
Ionization: ESI
Collision energy: 30eV
Column name: Acquity CSHC18
Retention time: 8.733 min
Base peak: 367.1585
Precursor m/z: 367.1585
Precursor type: [M-H]-
Precursor intensity: 161
m/z	relative intensity
53.0246	607
59.1324	455
65.1782	440
67.9405	467
69.5315	476
70.6527	386
79.9555	999
86.7621	509
94.4627	428
97.9576	668
108.9134	493
138.8667	596
177.9066	572
245.0742	517
262.9254	552
312.5118	567
382.5154	526
