Mass spectrum: Iodotyrosine; ESI-TOF; MS2; CE: 6.0000000;  [M+H]+
Name: Iodotyrosine
Class: NA
Formula: C9H10INO3
Exact mass: 306.97054
SMILES: NC(CC1=CC=C(O)C(I)=C1)C(O)=O
InChI: InChI=1S/C9H10INO3/c10-6-3-5(1-2-8(6)12)4-7(11)9(13)14/h1-3,7,12H,4,11H2,(H,13,14)
Instrument: waters xevo g2 TOF
Instrument type: ESI-TOF
Ms type: MS2
Ion mode: POSITIVE
Ionization: ESI
Collision energy: 6.0000000
Column name: Acquity CSHC18
Retention time: 1.736 min
Base peak: 307.97854
Precursor m/z: 307.97854
Precursor type: [M+H]+
m/z	relative intensity
120.0571	1
135.0686	4
136.0617	3
138.9905	1
146.0369	8
163.0401	1
164.0123	65
165.0506	12
233.9867	1
244.9462	23
245.9496	1
246.9624	1
248.9413	92
249.944	6
261.9731	751
262.9761	75
263.9774	4
272.9413	52
273.9459	5
290.952	636
291.9544	66
292.9577	6
307.9789	999
308.9817	116
