Mass spectrum: L-Hydroxyproline; LC-ESI-QTOF; MS2; CE: 15.00;  [2M+Na-2H]-
Name: L-Hydroxyproline
Class: NA
Formula: C5H9NO3
Exact mass: 131.0582
SMILES: C1C(CNC1C(=O)O)O
InChI: InChI=1S/C5H9NO3/c7-3-1-4(5(8)9)6-2-3/h3-4,6-7H,1-2H2,(H,8,9)
Instrument: Bruker MicrOTOF-Q
Instrument type: LC-ESI-QTOF
Ms type: MS2
Ion mode: NEGATIVE
Ionization: ESI
Collision energy: 15.00
Column name: Acquity CSHC18
Retention time: NA
Base peak: 283.0912
Precursor m/z: 283.0912
Precursor type: [2M+Na-2H]-
m/z	relative intensity
47.89	47
48.53	60
49.465	57
50.14	67
51.2	47
52.055	60
54.54	53
56.02	67
56.6	53
57.24	40
58.63	40
59.32	33
61.305	57
62.27	60
64.1	53
64.67	73
65.14	40
66.27	58
69.33	40
70.31	40
70.91	80
71.63	67
73.23	40
73.83	57
76.525	53
78.9433	55
81.12	43
83.89	40
86.33	47
86.935	50
88.475	36
89.63	60
90.16	47
91.67	47
92.54	33
94.345	67
95.73	57
96.41	47
100.38	53
101.26	60
102	40
103.2067	80
104.23	40
105.54	33
106.62	40
108.28	33
108.77	53
110.49	53
112.6	47
113.71	53
114.465	50
115.54	47
116.03	60
117.3	53
117.86	53
118.77	33
120.21	67
121.525	53
122.54	53
123.18	47
124.72	53
125.58	100
127.2	60
128.005	339
128.96	47
130.0271	999
131.01	261
136.11	33
146.43	33
160.83	47
223.31	40
224.61	67
283.1	127
283.78	53
307.34	47
321.87	53
330.05	53
402.16	33
404.04	33
503.3	47
505.16	33
565.77	33
640.63	33
663.26	33
744.42	40
779.24	33
