Mass spectrum: E-Cinnamaldehyde; LC-ESI-QTOF; MS2; CE: 15.00;  [M+H]+
Name: E-Cinnamaldehyde
Class: NA
Formula: C9H8O
Exact mass: 132.0575
SMILES: C1=CC=C(C=C1)C=CC=O
InChI: InChI=1S/C9H8O/c10-8-4-7-9-5-2-1-3-6-9/h1-8H
Instrument: Bruker MicrOTOF-Q
Instrument type: LC-ESI-QTOF
Ms type: MS2
Ion mode: POSITIVE
Ionization: ESI
Collision energy: 15.00
Column name: Acquity CSHC18
Retention time: NA
Base peak: 133.0648
Precursor m/z: 133.0648
Precursor type: [M+H]+
m/z	relative intensity
115.0526	999
116.0553	107
131.0502	33
132.0546	16
133.0627	160
134.0703	21
