Mass spectrum: L-Proline; ESI-TOF; MS2; CE: 6.0000000;  [M+H]+
Name: L-Proline
Class: NA
Formula: C5H9NO2
Exact mass: 115.06333
SMILES: OC(=O)C1CCCN1
InChI: InChI=1S/C5H9NO2/c7-5(8)4-2-1-3-6-4/h4,6H,1-3H2,(H,7,8)
Instrument: waters xevo g2 TOF
Instrument type: ESI-TOF
Ms type: MS2
Ion mode: POSITIVE
Ionization: ESI
Collision energy: 6.0000000
Column name: Acquity CSHC18
Retention time: 0.559 min
Base peak: 116.07133
Precursor m/z: 116.07133
Precursor type: [M+H]+
m/z	relative intensity
70.066	48
116.0712	999
117.0741	67
118.0746	6
122.0794	1
138.0528	34
160.035	4
160.9893	2
194.051	4
258.1725	3
269.0805	5
285.0549	1
287.0532	1
370.1535	3
384.1443	13
392.1361	1
399.1115	23
400.1132	5
406.1275	4
421.0914	13
422.0956	4
499.2058	1
514.1711	8
515.1739	2
558.1333	1
