Mass spectrum: 5-Hydroxyindoleacetic acid; LC-ESI-ITFT; MS2; CE: 60;  [M+H]+
Name: 5-Hydroxyindoleacetic acid
Class: Organoheterocyclic compounds; Indoles and derivatives; Indolyl carboxylic acids and derivatives
Formula: C10H9NO3
Exact mass: 191.05824
SMILES: OC(=O)CC1=CNC2=CC=C(O)C=C12
InChI: InChI=1S/C10H9NO3/c12-7-1-2-9-8(4-7)6(5-11-9)3-10(13)14/h1-2,4-5,11-12H,3H2,(H,13,14)
Instrument: Thermo Scientific Q-Exactive Focus
Instrument type: LC-ESI-ITFT
Ms type: MS2
Ion mode: POSITIVE
Ionization: ESI
Collision energy: 60
Column name: Acquity CSHC18
Retention time: NA
Base peak: 192.06552
Precursor m/z: 192.06552
Precursor type: [M+H]+
m/z	relative intensity
51.0235	91
65.0391	999
75.0233	180
78.0468	66
89.0389	167
90.0467	121
91.0545	606
95.0494	68
117.0574	356
118.0653	67
