Mass spectrum: 8-methylthiooctylglucosinolate; LC-ESI-QTOF; MS2; CE: 35.00;  [M+H]+
Name: 8-methylthiooctylglucosinolate
Class: NA
Formula: C16H31NO6S2
Exact mass: 397.1593
SMILES: CSCCCCCCCCC(=NO)SC1C(C(C(C(O1)CO)O)O)O
InChI: InChI=1S/C16H31NO6S2/c1-24-9-7-5-3-2-4-6-8-12(17-22)25-16-15(21)14(20)13(19)11(10-18)23-16/h11,13-16,18-22H,2-10H2,1H3
Instrument: Bruker MicrOTOF-Q
Instrument type: LC-ESI-QTOF
Ms type: MS2
Ion mode: POSITIVE
Ionization: ESI
Collision energy: 35.00
Column name: Acquity CSHC18
Retention time: NA
Base peak: 398.1664
Precursor m/z: 398.1664
Precursor type: [M+H]+
m/z	relative intensity
121.0996	454
122.0986	508
123.1049	470
123.1068	347
127.0424	295
134.0935	412
136.1099	311
136.1122	258
137.1227	302
138.1268	999
140.1409	262
154.1217	354
155.0876	511
156.0862	319
169.1042	367
170.0995	586
188.1111	953
202.1261	395
203.0867	343
218.1045	238
236.1096	647
