Mass spectrum: Malonic acid; LC-ESI-QTOF; MS2; CE: 10;  [M-H]-
Name: Malonic acid
Class: NA
Formula: C3H4O4
Exact mass: 104.01096
SMILES: C(C(=O)O)C(=O)O
InChI: InChI=1S/C3H4O4/c4-2(5)1-3(6)7/h1H2,(H,4,5)(H,6,7)
Instrument: impact II
Instrument type: LC-ESI-QTOF
Ms type: MS2
Ion mode: NEGATIVE
Ionization: ESI
Collision energy: 10
Column name: Acquity CSHC18
Retention time: 1.909 min
Base peak: 103.00360
Precursor m/z: 103.00360
Precursor type: [M-H]-
m/z	relative intensity
58.9799	2
59.0005	4
59.0138	999
59.0225	39
59.0482	3
59.0669	3
59.0757	5
59.1062	2
59.1502	2
60.0172	14
103.0036	81
103.016	3
104.0073	2
