Mass spectrum: piperine; LC-ESI-ITFT; MS2; CE: 0.3;  [M+H]+
Name: piperine
Class: alkaloids
Formula: C17H19NO3
Exact mass: 285.1365
SMILES: C1CCN(CC1)C(=O)C=CC=CC2=CC3=C(C=C2)OCO3
InChI: InChI=1S/C17H19NO3/c19-17(18-10-4-1-5-11-18)7-3-2-6-14-8-9-15-16(12-14)21-13-20-15/h2-3,6-9,12H,1,4-5,10-11,13H2
Instrument: LTQ-Orbitrap XL hybrid mass spectrometer (Thermo Scientific)
Instrument type: LC-ESI-ITFT
Ms type: MS2
Ion mode: POSITIVE
Ionization: ESI
Collision energy: 0.3
Column name: Acquity CSHC18
Retention time: 12.390 min
Base peak: 286.1437
Precursor m/z: 286.1437
Precursor type: [M+H]+
Precursor intensity: 22038900
m/z	relative intensity
71.7891	1
81.0403	1
84.0802	1
112.0757	3
115.0538	2
135.0439	32
143.0488	4
150.0909	4
151.099	1
162.5451	1
167.0281	4
171.044	6
173.0596	17
185.0975	1
197.6068	1
199.4107	1
199.8201	8
200.2292	1
200.395	2
200.7241	1
200.7842	1
200.8014	1
200.8188	1
200.8279	1
200.8547	1
200.8625	1
200.8791	2
200.8967	1
200.9052	2
200.9226	2
200.9314	2
200.9481	3
200.9575	3
200.966	3
200.9825	4
200.9933	3
201.0011	4
201.0086	5
201.0223	5
201.0547	999
201.0884	4
201.0946	5
201.1033	5
201.1126	4
201.1201	5
201.131	3
201.1375	3
201.1467	2
201.1552	2
201.1638	2
201.1722	2
201.1815	2
201.1976	2
201.2069	1
201.2156	1
201.2256	1
201.2324	1
201.2424	1
201.2498	1
201.2583	1
201.2734	1
201.2841	1
201.2992	1
201.3092	2
201.3355	1
201.387	1
201.6306	1
201.7157	1
201.8818	1
201.9755	1
202.0013	1
202.2994	7
202.7213	1
203.0699	2
215.107	5
268.1342	1
286.1442	45
