Mass spectrum: (-)-Myrtenol; LC-ESI-QTOF; MS2; CE: 0.00;  [M-H2O+H]+
Name: (-)-Myrtenol
Class: NA
Formula: C10H16O
Exact mass: 152.1201
SMILES: CC1(C2CC=C(C1C2)CO)C
InChI: InChI=1S/C10H16O/c1-10(2)8-4-3-7(6-11)9(10)5-8/h3,8-9,11H,4-6H2,1-2H3
Instrument: Bruker MicrOTOF-Q
Instrument type: LC-ESI-QTOF
Ms type: MS2
Ion mode: POSITIVE
Ionization: ESI
Collision energy: 0.00
Column name: Acquity CSHC18
Retention time: NA
Base peak: 135.1168
Precursor m/z: 135.1168
Precursor type: [M-H2O+H]+
m/z	relative intensity
105.0691	37
107.0873	107
115.0529	94
119.0815	119
133.1012	66
135.116	999
136.123	70
