Mass spectrum: Adenine; LC-ESI-QTOF; MS2; CE: 15;  [M-H]-
Name: Adenine
Class: NA
Formula: C5H5N5
Exact mass: 135.0545
SMILES: C1=NC2=NC=NC(=C2N1)N
InChI: InChI=1S/C5H5N5/c6-4-3-5(9-1-7-3)10-2-8-4/h1-2H,(H3,6,7,8,9,10)
Instrument: Bruker MicrOTOF-Q
Instrument type: LC-ESI-QTOF
Ms type: MS2
Ion mode: NEGATIVE
Ionization: ESI
Collision energy: 15
Column name: Acquity CSHC18
Retention time: NA
Base peak: 134.0472
Precursor m/z: 134.0472
Precursor type: [M-H]-
m/z	relative intensity
45.1805	85
46.7106	46
47.357	51
47.8094	46
48.7211	80
49.5951	89
50.2671	55
52.4193	67
54.164	70
55.1432	76
57.1999	92
57.9892	84
59.3161	67
60.1035	82
60.9132	72
62.0088	67
63.7613	63
64.6392	70
66.0794	84
66.661	51
67.4264	78
68.4171	68
68.9843	49
69.5149	92
70.7507	55
71.5514	58
73.4173	78
77.3888	53
78.0666	72
79.4592	86
81.0776	62
82.2895	58
82.9689	71
84.2625	59
86.568	72
89.2354	84
91.4391	51
92.0223	389
92.718	77
94.3643	57
94.9483	57
96.3245	86
97.2013	70
98.216	69
99.6913	69
100.7713	59
101.9361	78
102.4824	74
103.5912	75
104.7937	57
105.9426	64
107.0251	999
108.0996	138
108.7095	53
111.2062	46
113.1406	40
115.8264	71
117.024	214
118.6035	80
119.8904	51
121.1932	55
122.1957	70
122.8501	76
123.4053	58
125.2248	42
131.5556	47
132.8978	78
134.256	769
140.5543	67
145.9534	49
186.629	97
189.1136	47
201.1628	44
247.7231	63
305.5667	78
397.8187	47
437.2493	39
456.8297	47
458.7821	53
468.7611	69
627.3208	42
662.4994	47
666.2332	57
770.525	69
913.8947	70
953.2679	63
