Mass spectrum: L-Leucine; ESI-TOF; MS2; CE: 6.0000000;  [M+H]+
Name: L-Leucine
Class: NA
Formula: C6H13NO2
Exact mass: 131.09463
SMILES: CC(C)CC(N)C(O)=O
InChI: InChI=1S/C6H13NO2/c1-4(2)3-5(7)6(8)9/h4-5H,3,7H2,1-2H3,(H,8,9)
Instrument: waters xevo g2 TOF
Instrument type: ESI-TOF
Ms type: MS2
Ion mode: POSITIVE
Ionization: ESI
Collision energy: 6.0000000
Column name: Acquity CSHC18
Retention time: 0.846 min
Base peak: 132.10263
Precursor m/z: 132.10263
Precursor type: [M+H]+
m/z	relative intensity
86.0976	222
86.0977	107
87.1011	5
87.1016	5
129.054	9
131.952	6
132.103	999
133.1063	18
