Mass spectrum: ADENINE; LC-ESI-QTOF; MS2; CE: 20;  [M+H]+
Name: ADENINE
Class: NA
Formula: C5H5N5
Exact mass: 135.0545
SMILES: NC1=C2NC=NC2=NC=N1
InChI: InChI=1S/C5H5N5/c6-4-3-5(9-1-7-3)10-2-8-4/h1-2H,(H3,6,7,8,9,10)
Instrument: Agilent 6530Â Q-TOF LC/MS
Instrument type: LC-ESI-QTOF
Ms type: MS2
Ion mode: POSITIVE
Ionization: ESI
Collision energy: 20
Column name: NA
Retention time: 0.200 min
Base peak: 136.06309
Precursor m/z: 136.06309
Precursor type: [M+H]+
Precursor intensity: 99.5
m/z	relative intensity
55.0291	28
65.0133	45
67.0288	49
82.0391	85
92.0234	99
94.0383	116
109.0494	294
119.0335	616
136.06	999
