Mass spectrum: XANTHOSINE; LC-ESI-QFT; MS2; CE: 30eV;  [M-H]-
Name: XANTHOSINE
Class: NA
Formula: C10H12N4O6
Exact mass: 284.07568
SMILES: OC[C@H]1O[C@H]([C@H](O)[C@@H]1O)N1C=NC2=C1N=C(O)N=C2O
InChI: InChI=1S/C10H12N4O6/c15-1-3-5(16)6(17)9(20-3)14-2-11-4-7(14)12-10(19)13-8(4)18/h2-3,5-6,9,15-17H,1H2,(H2,12,13,18,19)/t3-,5-,6-,9-/m1/s1
Instrument: Q-Exactive Orbitrap, Thermo Scientfic; Ultimate 3000 HPLC, Thermo Scientfic
Instrument type: LC-ESI-QFT
Ms type: MS2
Ion mode: NEGATIVE
Ionization: ESI
Collision energy: 30eV
Column name: Acquity CSHC18
Retention time: 1.582 min
Base peak: 283.0684
Precursor m/z: 283.0684
Precursor type: [M-H]-
Precursor intensity: 198
m/z	relative intensity
51.6268	1
52.3075	1
52.4498	1
52.5757	1
53.0994	1
58.7558	1
59.1147	1
59.2299	1
63.516	1
67.1641	1
67.9226	1
75.4971	1
80.865	1
108.0186	8
111.1098	1
151.0247	999
152.0221	5
152.028	24
207.0427	1
247.7432	1
283.068	54
284.0706	1
