Mass spectrum: L-Arginine; ESI-TOF; MS2; CE: 6.0000000;  [M+H]+
Name: L-Arginine
Class: NA
Formula: C6H14N4O2
Exact mass: 174.11168
SMILES: NC(CCCN=C(N)N)C(O)=O
InChI: InChI=1S/C6H14N4O2/c7-4(5(11)12)2-1-3-10-6(8)9/h4H,1-3,7H2,(H,11,12)(H4,8,9,10)
Instrument: waters xevo g2 TOF
Instrument type: ESI-TOF
Ms type: MS2
Ion mode: POSITIVE
Ionization: ESI
Collision energy: 6.0000000
Column name: Acquity CSHC18
Retention time: 0.479 min
Base peak: 175.11968
Precursor m/z: 175.11968
Precursor type: [M+H]+
m/z	relative intensity
70.0667	54
95.9735	3
112.0879	44
113.0725	7
114.1033	37
115.0882	27
116.0717	674
117.0745	46
130.0985	31
131.1011	41
133.0981	18
140.0823	10
141.067	10
145.9559	73
146.0927	26
149.9616	21
158.0934	999
159.0961	81
161.9709	10
163.9772	24
175.1199	495
176.1226	737
177.1243	64
185.0478	9
187.0492	3
189.135	3
192.1609	3
208.9998	2
218.1278	12
228.0317	3
229.0399	13
258.8887	13
261.1576	21
270.043	3
349.2309	27
363.792	2
401.1557	3
402.1435	29
403.15	60
405.1504	15
577.2623	5
