Mass spectrum: C16 Ceramide (d18:1/16:0); ESI-TOF; MS2; CE: 6.0000000;  [M+H]+
Name: C16 Ceramide (d18:1/16:0)
Class: NA
Formula: C34H67NO3
Exact mass: 537.51210
SMILES: [H]OC([H])([H])C([H])(N([H])C(=O)C([H])([H])C([H])([H])C([H])([H])C([H])([H])C([H])([H])C([H])([H])C([H])([H])C([H])([H])C([H])([H])C([H])([H])C([H])([H])C([H])([H])C([H])([H])C([H])([H])C([H])([H])[H])C([H])(O[H])C([H])=C([H])C([H])([H])C([H])([H])C([H])([H])C([H])([H])C([H])([H])C([H])([H])C([H])([H])C([H])([H])C([H])([H])C([H])([H])C([H])([H])C([H])([H])C([H])([H])[H]
InChI: InChI=1S/C34H67NO3/c1-3-5-7-9-11-13-15-17-19-21-23-25-27-29-33(37)32(31-36)35-34(38)30-28-26-24-22-20-18-16-14-12-10-8-6-4-2/h27,29,32-33,36-37H,3-26,28,30-31H2,1-2H3,(H,35,38)
Instrument: waters xevo g2 TOF
Instrument type: ESI-TOF
Ms type: MS2
Ion mode: POSITIVE
Ionization: ESI
Collision energy: 6.0000000
Column name: Acquity CSHC18
Retention time: 10.807 min
Base peak: 538.52010
Precursor m/z: 538.52010
Precursor type: [M+H]+
m/z	relative intensity
193.5908	7
264.2692	4
264.7275	27
265.2303	5
270.727	38
279.7324	18
280.2341	5
288.7381	80
289.2397	31
289.7408	6
416.8561	3
503.5007	3
520.5091	999
521.5129	394
522.5158	78
523.5162	4
538.52	458
539.5254	93
