Mass spectrum: Raffinose; ESI-TOF; MS2; CE: 0.6458333;  [M+H]+
Name: Raffinose
Class: NA
Formula: C18H32O16
Exact mass: 504.16903
SMILES: OCC1OC(OCC2OC(OC3(CO)OC(CO)C(O)C3O)C(O)C(O)C2O)C(O)C(O)C1O
InChI: InChI=1S/C18H32O16/c19-1-5-8(22)11(25)13(27)16(31-5)30-3-7-9(23)12(26)14(28)17(32-7)34-18(4-21)15(29)10(24)6(2-20)33-18/h5-17,19-29H,1-4H2
Instrument: waters xevo g2 TOF
Instrument type: ESI-TOF
Ms type: MS2
Ion mode: POSITIVE
Ionization: ESI
Collision energy: 0.6458333
Column name: Acquity CSHC18
Retention time: 0.557 min
Base peak: 505.17703
Precursor m/z: 505.17703
Precursor type: [M+H]+
m/z	relative intensity
73.0289	74
85.0295	888
91.0395	341
96.9615	6
96.9618	6
97.0288	441
114.9495	73
127.0398	477
135.9926	6
145.0503	500
163.0606	684
186.9692	392
236.9392	6
236.9398	6
272.0665	37
277.0014	6
289.093	6
325.1129	262
326.1156	20
337.0228	334
343.1236	63
365.1045	831
396.0357	900
397.0408	127
398.0428	6
487.1686	6
505.1767	6
522.204	6
523.2056	6
524.1486	6
527.1587	999
528.1607	189
529.1591	43
558.0905	103
559.0907	6
667.2268	6
685.2391	6
900.1949	6
1062.264	19
