Mass spectrum: 3',5'-cyclic GMP; LC-ESI-QTOF; MS2; CE: 35.00;  [M+H]+
Name: 3',5'-cyclic GMP
Class: NA
Formula: C10H12N5O7P
Exact mass: 345.0474
SMILES: C1C2C(C(C(O2)N3C=NC4=C3NC(=NC4=O)N)O)OP(=O)(O1)O
InChI: InChI=1S/C10H12N5O7P/c11-10-13-7-4(8(17)14-10)12-2-15(7)9-5(16)6-3(21-9)1-20-23(18,19)22-6/h2-3,5-6,9,16H,1H2,(H,18,19)(H3,11,13,14,17)
Instrument: Bruker MicrOTOF-Q
Instrument type: LC-ESI-QTOF
Ms type: MS2
Ion mode: POSITIVE
Ionization: ESI
Collision energy: 35.00
Column name: Acquity CSHC18
Retention time: NA
Base peak: 346.0544
Precursor m/z: 346.0544
Precursor type: [M+H]+
m/z	relative intensity
110.0326	21
134.0428	21
135.0291	821
136.0322	68
151.9331	5
152.0559	999
152.5801	7
153.0549	84
204.963	6
268.8174	5
278.9073	5
298.8292	5
304.8438	5
305.8554	8
