Mass spectrum: 17-phenyl trinor Prostaglandin A2; ESI-TOF; MS2; CE: 0.6458333;  [M+H]+
Name: 17-phenyl trinor Prostaglandin A2
Class: NA
Formula: C23H28O4
Exact mass: 368.19876
SMILES: O=C1[C@H](C/C=C\CCCC(O)=O)[C@@H](/C=C/[C@@H](O)CCC2=CC=CC=C2)C=C1
InChI: InChI=1S/C23H28O4/c24-20(15-12-18-8-4-3-5-9-18)16-13-19-14-17-22(25)21(19)10-6-1-2-7-11-23(26)27/h1,3-6,8-9,13-14,16-17,19-21,24H,2,7,10-12,15H2,(H,26,27)/b6-1-,16-13+/t19-,20-,21+/m0/s1
Instrument: waters xevo g2 TOF
Instrument type: ESI-TOF
Ms type: MS2
Ion mode: POSITIVE
Ionization: ESI
Collision energy: 0.6458333
Column name: Acquity CSHC18
Retention time: 3.695 min
Base peak: 369.20676
Precursor m/z: 369.20676
Precursor type: [M+H]+
m/z	relative intensity
91.0552	999
93.0717	60
97.0655	80
105.0712	437
109.0665	95
115.0559	87
117.0712	864
118.0746	77
119.0519	22
121.0654	172
123.0819	63
128.0636	125
129.0714	266
131.0872	397
133.0306	85
135.0827	26
141.0707	184
142.0747	30
143.0866	92
145.0656	432
147.0795	37
153.0709	45
155.0864	149
157.0655	125
158.0736	30
162.9746	10
166.0775	43
167.0782	328
168.0843	62
169.1017	159
171.0816	56
173.0977	28
181.1013	133
182.1048	21
183.1175	95
185.0967	192
191.0968	42
195.1016	34
196.0827	11
197.0948	34
203.1077	74
204.084	21
205.1096	104
206.1091	55
207.1177	80
211.1128	198
212.1156	33
215.0823	20
221.13	52
223.123	122
224.1194	133
229.1227	75
232.1192	18
237.1273	168
242.1291	18
245.0254	71
247.0626	142
249.1282	446
250.1317	150
262.0368	38
263.0415	63
264.0366	21
269.1287	26
297.1639	96
298.0854	32
305.0974	18
315.1742	214
317.0482	75
333.1394	238
334.1901	27
352.1991	17
