Mass spectrum: 3-METHYLHISTAMINE; LC-ESI-QFT; MS2; CE: 30eV;  [M+H]+
Name: 3-METHYLHISTAMINE
Class: NA
Formula: C6H11N3
Exact mass: 125.09530
SMILES: CN1C=NC=C1CCN
InChI: InChI=1S/C6H11N3/c1-9-5-8-4-6(9)2-3-7/h4-5H,2-3,7H2,1H3
Instrument: Q-Exactive Orbitrap, Thermo Scientfic; Ultimate 3000 HPLC, Thermo Scientfic
Instrument type: LC-ESI-QFT
Ms type: MS2
Ion mode: POSITIVE
Ionization: ESI
Collision energy: 30eV
Column name: Acquity CSHC18
Retention time: 0.561 min
Base peak: 126.1026
Precursor m/z: 126.1026
Precursor type: [M+H]+
Precursor intensity: 143
m/z	relative intensity
52.6101	10
54.0347	11
56.9656	14
57.4285	9
67.9357	16
68.0503	51
71.8861	10
75.0269	128
76.3998	9
76.4676	9
81.0706	19
84.9384	58
84.9605	186
93.0374	45
95.061	76
96.0689	999
97.072	20
97.0767	790
98.08	14
102.949	15
110.08	77
113.5757	12
116.9727	12
125.9646	13
127.1	47
127.1064	371
141.3772	11
