Mass spectrum: L-Homoserine; LC-ESI-ITFT; MS2; CE: 10;  [M+H]+
Name: L-Homoserine
Class: Organic acids and derivatives; Carboxylic acids and derivatives; Amino acids, peptides, and analogues
Formula: C4H9NO3
Exact mass: 119.05824
SMILES: N[C@@H](CCO)C(O)=O
InChI: InChI=1S/C4H9NO3/c5-3(1-2-6)4(7)8/h3,6H,1-2,5H2,(H,7,8)/t3-/m0/s1
Instrument: Thermo Scientific Q-Exactive Focus
Instrument type: LC-ESI-ITFT
Ms type: MS2
Ion mode: POSITIVE
Ionization: ESI
Collision energy: 10
Column name: Acquity CSHC18
Retention time: 0.348 min
Base peak: 120.06552
Precursor m/z: 120.06552
Precursor type: [M+H]+
m/z	relative intensity
56.05	221
73.4136	2
74.024	29
74.0604	999
76.3092	2
77.1917	2
84.0447	9
102.0552	56
107.7877	2
120.0656	110
