Mass spectrum: 3-methoxy Prostaglandin F1-alpha; ESI-TOF; MS2; CE: 6.0000000;  [M+H]+
Name: 3-methoxy Prostaglandin F1-alpha
Class: NA
Formula: C21H38O6
Exact mass: 386.26684
SMILES: O[C@@H]1[C@H](CCCCC(OC)CC(O)=O)[C@@H](/C=C/[C@@H](O)CCCCC)[C@H](O)C1
InChI: InChI=1S/C21H38O6/c1-3-4-5-8-15(22)11-12-18-17(19(23)14-20(18)24)10-7-6-9-16(27-2)13-21(25)26/h11-12,15-20,22-24H,3-10,13-14H2,1-2H3,(H,25,26)/b12-11+/t15-,16?,17+,18+,19-,20+/m0/s1
Instrument: waters xevo g2 TOF
Instrument type: ESI-TOF
Ms type: MS2
Ion mode: POSITIVE
Ionization: ESI
Collision energy: 6.0000000
Column name: Acquity CSHC18
Retention time: 3.417 min
Base peak: 387.27484
Precursor m/z: 387.27484
Precursor type: [M+H]+
m/z	relative intensity
105.0709	11
119.0863	8
131.0867	15
133.1019	10
161.1162	13
163.1492	6
166.0896	17
173.1327	26
187.1487	21
191.1032	7
193.1238	16
215.1811	19
216.1861	4
217.1974	10
239.1796	7
242.1967	14
255.2102	20
259.2052	11
265.1963	31
275.2004	53
278.0613	4
304.3029	26
308.2299	26
309.2332	4
315.2316	50
316.2347	8
325.2362	42
333.2025	999
334.2457	464
350.1934	30
351.2513	405
352.2564	86
363.1966	4
367.2453	12
369.2637	146
370.268	31
379.1559	48
380.157	6
381.1635	11
383.28	11
385.2611	5
387.1656	20
388.2431	192
388.7414	89
389.2376	17
