Mass spectrum: GALACTITOL; LC-ESI-QTOF; MS2; CE: 10;  [M-H]-
Name: GALACTITOL
Class: NA
Formula: C6H14O6
Exact mass: 182.07904
SMILES: OC[C@H](O)[C@@H](O)[C@@H](O)[C@H](O)CO
InChI: InChI=1S/C6H14O6/c7-1-3(9)5(11)6(12)4(10)2-8/h3-12H,1-2H2/t3-,4+,5+,6-
Instrument: Agilent 6530Â Q-TOF LC/MS
Instrument type: LC-ESI-QTOF
Ms type: MS2
Ion mode: NEGATIVE
Ionization: ESI
Collision energy: 10
Column name: NA
Retention time: 0.200 min
Base peak: 181.07402
Precursor m/z: 181.07402
Precursor type: [M-H]-
Precursor intensity: 173
m/z	relative intensity
41.009	137
43.0272	151
55.0282	159
57.0369	196
59.0289	212
71.0274	225
73.0349	251
83.0159	370
85.0317	382
89.0356	481
101.0403	748
119.0349	753
163.0612	923
181.0895	999
