Mass spectrum: MALEATE; LC-ESI-QTOF; MS2; CE: 10;  [M-H]-
Name: MALEATE
Class: NA
Formula: C4H4O4
Exact mass: 116.01096
SMILES: OC(=O)\C=C/C(O)=O
InChI: InChI=1S/C4H4O4/c5-3(6)1-2-4(7)8/h1-2H,(H,5,6)(H,7,8)/b2-1-
Instrument: Agilent 6530Â Q-TOF LC/MS
Instrument type: LC-ESI-QTOF
Ms type: MS2
Ion mode: NEGATIVE
Ionization: ESI
Collision energy: 10
Column name: NA
Retention time: 0.200 min
Base peak: 115.00410
Precursor m/z: 115.00410
Precursor type: [M-H]-
Precursor intensity: 195
m/z	relative intensity
71.0374	277
115.0102	999
