Mass spectrum: 12-Oxo-pda; LC-ESI-QTOF; MS2; CE: -10, -35, -60V;  [M-H]-
Name: 12-Oxo-pda
Class: NA
Formula: C18H28O3
Exact mass: 292.2038
SMILES: CCC=CCC1C(C=CC1=O)CCCCCCCC(=O)O
InChI: InChI=1S/C18H28O3/c1-2-3-7-11-16-15(13-14-17(16)19)10-8-5-4-6-9-12-18(20)21/h3,7,13-16H,2,4-6,8-12H2,1H3,(H,20,21)
Instrument: TripleToF 5600; Sciex
Instrument type: LC-ESI-QTOF
Ms type: MS2
Ion mode: NEGATIVE
Ionization: ESI
Collision energy: -10, -35, -60V
Column name: Acquity CSHC18
Retention time: 19.984 min
Base peak: 291.1987
Precursor m/z: 291.1987
Precursor type: [M-H]-
Precursor intensity: 221060.8
m/z	relative intensity
148.0879	33
163.1134	35
165.1281	438
191.1446	23
247.2081	344
273.1849	194
291.1988	999
