Mass spectrum: 3,5-DIIODO-L-TYROSINE; LC-ESI-QTOF; MS2; CE: 20;  [M+H]+
Name: 3,5-DIIODO-L-TYROSINE
Class: NA
Formula: C9H9I2NO3
Exact mass: 432.86719
SMILES: [H][C@](N)(CC1=CC(I)=C(O)C(I)=C1)C(O)=O
InChI: InChI=1S/C9H9I2NO3/c10-5-1-4(2-6(11)8(5)13)3-7(12)9(14)15/h1-2,7,13H,3,12H2,(H,14,15)/t7-/m0/s1
Instrument: Agilent 6530Â Q-TOF LC/MS
Instrument type: LC-ESI-QTOF
Ms type: MS2
Ion mode: POSITIVE
Ionization: ESI
Collision energy: 20
Column name: NA
Retention time: 0.200 min
Base peak: 433.86916
Precursor m/z: 433.86916
Precursor type: [M+H]+
Precursor intensity: 86.5
m/z	relative intensity
105.0315	85
106.0531	85
107.0677	87
107.965	88
117.0326	97
119.0938	99
120.0934	103
123.108	103
134.0692	108
135.0798	116
219.9532	121
233.9646	127
243.944	132
244.9476	135
247.9346	166
259.9618	173
260.9932	185
261.9523	204
271.9478	204
289.967	205
370.8359	233
374.8585	254
387.9026	384
388.8739	482
416.8627	852
433.8708	999
