Mass spectrum: 1,2-dilignoceroyl-sn-glycero-3-phosphocholine; ESI-TOF; MS2; CE: 0.6458333;  [M+H]+
Name: 1,2-dilignoceroyl-sn-glycero-3-phosphocholine
Class: NA
Formula: C56H112NO8P
Exact mass: 957.81256
SMILES: [H]C([H])([H])C([H])([H])C([H])([H])C([H])([H])C([H])([H])C([H])([H])C([H])([H])C([H])([H])C([H])([H])C([H])([H])C([H])([H])C([H])([H])C([H])([H])C([H])([H])C([H])([H])C([H])([H])C([H])([H])C([H])([H])C([H])([H])C([H])([H])C([H])([H])C([H])([H])C([H])([H])C(=O)OC([H])([H])C([H])(OC(=O)C([H])([H])C([H])([H])C([H])([H])C([H])([H])C([H])([H])C([H])([H])C([H])([H])C([H])([H])C([H])([H])C([H])([H])C([H])([H])C([H])([H])C([H])([H])C([H])([H])C([H])([H])C([H])([H])C([H])([H])C([H])([H])C([H])([H])C([H])([H])C([H])([H])C([H])([H])C([H])([H])[H])C([H])([H])OP(=O)([O-])OC([H])([H])C([H])([H])[N+](C([H])([H])[H])(C([H])([H])[H])C([H])([H])[H]
InChI: InChI=1S/C56H112NO8P/c1-6-8-10-12-14-16-18-20-22-24-26-28-30-32-34-36-38-40-42-44-46-48-55(58)62-52-54(53-64-66(60,61)63-51-50-57(3,4)5)65-56(59)49-47-45-43-41-39-37-35-33-31-29-27-25-23-21-19-17-15-13-11-9-7-2/h54H,6-53H2,1-5H3
Instrument: waters xevo g2 TOF
Instrument type: ESI-TOF
Ms type: MS2
Ion mode: POSITIVE
Ionization: ESI
Collision energy: 0.6458333
Column name: Acquity CSHC18
Retention time: 14.570 min
Base peak: 958.82056
Precursor m/z: 958.82056
Precursor type: [M+H]+
m/z	relative intensity
164.8721	25
164.8734	37
172.862	18
184.0733	435
214.9184	46
295.1944	22
295.196	43
407.3199	565
408.3208	79
590.4526	20
590.4548	450
591.4584	109
775.754	157
776.7565	95
958.8164	999
959.8221	591
960.8272	62
961.8299	19
977.7937	101
978.2954	136
978.7969	79
979.3009	31
980.8011	611
981.8048	371
982.8085	149
983.8094	20
986.7723	8
1042.7749	99
1043.2768	36
1043.7775	100
1044.7752	29
1049.7927	17
1051.2541	27
1051.763	19
1052.261	19
1058.7537	22
1059.7441	19
