Mass spectrum: 3-HYDROXYANTHRANILATE; LC-ESI-QFT; MS2; CE: 30eV;  [M+H]+
Name: 3-HYDROXYANTHRANILATE
Class: NA
Formula: C7H7NO3
Exact mass: 153.04259
SMILES: NC1=C(O)C=CC=C1C(O)=O
InChI: InChI=1S/C7H7NO3/c8-6-4(7(10)11)2-1-3-5(6)9/h1-3,9H,8H2,(H,10,11)
Instrument: Q-Exactive Orbitrap, Thermo Scientfic; Ultimate 3000 HPLC, Thermo Scientfic
Instrument type: LC-ESI-QFT
Ms type: MS2
Ion mode: POSITIVE
Ionization: ESI
Collision energy: 30eV
Column name: Acquity CSHC18
Retention time: 1.842 min
Base peak: 154.0499
Precursor m/z: 154.0499
Precursor type: [M+H]+
Precursor intensity: 130
m/z	relative intensity
51.9407	66
53.0391	13
53.0641	10
54.5642	9
54.7655	9
55.9339	12
55.9352	300
58.1517	10
67.9355	19
68.9434	54
69.508	11
69.9512	15
70.5531	10
71.0498	12
73.9455	18
76.0184	9
80.0501	285
80.8473	10
81.0705	24
83.6994	13
85.9459	50
86.9539	17
90.9482	23
91.956	13
92.9671	21
95.086	44
96.9614	52
97.0652	14
97.5904	12
98.7498	10
103.9564	28
107.0372	17
107.0859	20
108.0449	395
109.0653	15
109.1016	79
110.9773	21
113.9405	16
113.9643	11
114.2968	14
114.972	933
121.0288	50
123.0012	13
126.0553	85
126.9724	96
128.9509	72
131.9512	69
131.9871	474
135.0321	19
137.0373	39
137.0429	999
144.9827	51
146.9613	49
149.9617	148
151.9208	12
153.1274	19
153.9562	19
154.0441	24
154.0502	666
154.1232	16
154.9073	19
155.003	24
155.0533	15
155.1072	19
155.1542	21
