Mass spectrum: INDOLE-3-ACETATE; LC-ESI-QTOF; MS2; CE: 40;  [M-H]-
Name: INDOLE-3-ACETATE
Class: NA
Formula: C10H9NO2
Exact mass: 175.06333
SMILES: OC(=O)CC1=CNC2=C1C=CC=C2
InChI: InChI=1S/C10H9NO2/c12-10(13)5-7-6-11-9-4-2-1-3-8(7)9/h1-4,6,11H,5H2,(H,12,13)
Instrument: Agilent 6530Â Q-TOF LC/MS
Instrument type: LC-ESI-QTOF
Ms type: MS2
Ion mode: NEGATIVE
Ionization: ESI
Collision energy: 40
Column name: NA
Retention time: 0.200 min
Base peak: 174.05955
Precursor m/z: 174.05955
Precursor type: [M-H]-
Precursor intensity: 120
m/z	relative intensity
57.033	219
128.0708	264
130.0905	990
151.9435	999
