Mass spectrum: Alpha-Terpineol; ESI-TOF; MS2; CE: 0.6458333;  [M+H]+
Name: Alpha-Terpineol
Class: NA
Formula: C10H18O
Exact mass: 154.13577
SMILES: CC1=CCC(CC1)C(C)(C)O
InChI: InChI=1S/C10H18O/c1-8-4-6-9(7-5-8)10(2,3)11/h4,9,11H,5-7H2,1-3H3
Instrument: waters xevo g2 TOF
Instrument type: ESI-TOF
Ms type: MS2
Ion mode: POSITIVE
Ionization: ESI
Collision energy: 0.6458333
Column name: Acquity CSHC18
Retention time: 3.772 min
Base peak: 155.14377
Precursor m/z: 155.14377
Precursor type: [M+H]+
m/z	relative intensity
57.0708	5
65.0403	3
67.0555	112
69.0711	43
79.057	106
81.0709	671
82.0744	47
90.9774	14
93.0707	126
95.0863	999
96.0896	78
107.0864	80
109.1018	114
119.0864	37
121.1022	37
123.1172	29
133.1014	23
135.1177	56
136.1222	8
137.1825	91
138.1368	22
140.9171	4
147.1177	19
147.998	54
149.1334	18
150.9143	2
161.0972	13
163.1483	13
166.0083	10
174.9947	2
183.0699	29
187.0727	3
188.0285	17
189.0943	8
192.0282	2
203.1803	13
208.0555	18
217.1244	10
226.9524	2
231.1412	2
235.1482	2
239.0956	10
242.285	4
256.3004	6
273.2585	39
274.2608	8
299.1639	3
333.1673	11
337.1057	4
351.1569	6
362.2588	2
410.166	29
451.0989	7
732.1991	3
