Mass spectrum: 2-METHYLCITRATE; LC-ESI-QTOF; MS2; CE: 20;  [M-H]-
Name: 2-METHYLCITRATE
Class: NA
Formula: C7H10O7
Exact mass: 206.04265
SMILES: CC(C(=O)O)C(CC(=O)O)(C(=O)O)O
InChI: InChI=1S/C7H10O7/c1-3(5(10)11)7(14,6(12)13)2-4(8)9/h3,14H,2H2,1H3,(H,8,9)(H,10,11)(H,12,13)
Instrument: Agilent 6530Â Q-TOF LC/MS
Instrument type: LC-ESI-QTOF
Ms type: MS2
Ion mode: NEGATIVE
Ionization: ESI
Collision energy: 20
Column name: NA
Retention time: 0.200 min
Base peak: 205.03586
Precursor m/z: 205.03586
Precursor type: [M-H]-
Precursor intensity: 116
m/z	relative intensity
41.0049	153
43.0193	179
53.0405	202
71.0637	335
81.0479	336
87.0239	484
99.0564	564
101.0324	635
125.0507	999
