Mass spectrum: D-mannitol; LC-ESI-QTOF; MS2; CE: 15.00;  [M+HCOOH-H]-
Name: D-mannitol
Class: NA
Formula: C6H14O6
Exact mass: 182.0790
SMILES: C(C(C(C(C(CO)O)O)O)O)O
InChI: InChI=1S/C6H14O6/c7-1-3(9)5(11)6(12)4(10)2-8/h3-12H,1-2H2
Instrument: Bruker MicrOTOF-Q
Instrument type: LC-ESI-QTOF
Ms type: MS2
Ion mode: NEGATIVE
Ionization: ESI
Collision energy: 15.00
Column name: Acquity CSHC18
Retention time: NA
Base peak: 227.0772
Precursor m/z: 227.0772
Precursor type: [M+HCOOH-H]-
m/z	relative intensity
45.7119	46
46.3281	64
47.0875	54
48.601	52
49.7243	59
51.0959	75
52.1211	47
53.7563	53
54.5743	59
55.1622	53
56.0236	55
57.4731	73
58.1798	42
59.0037	34
60.8574	65
61.9264	33
63.7782	64
64.4457	47
66.4469	66
70.1228	58
72.7075	37
73.684	94
75.0099	47
75.5411	56
76.6386	47
78.2856	47
80.4993	50
81.2043	49
82.8597	58
83.4222	80
85.0275	70
85.6913	47
87.0962	62
88.3806	44
89.0214	117
90.0274	47
91.0161	78
91.4417	48
92.0269	40
93.3795	58
94.1256	80
94.742	55
95.185	42
95.8359	47
96.983	59
97.9048	43
99.1451	55
100.839	370
101.9759	77
102.4381	50
105.0565	39
106.3262	52
107.2927	53
108.574	100
109.1684	86
110.4453	75
111.1096	62
112.9941	182
115.0618	85
117.9837	42
118.8836	164
119.9424	77
120.9778	99
121.9853	45
122.5355	31
124.416	44
125.154	52
126.341	39
126.8758	44
127.5589	56
128.2869	45
129.0816	58
130.0143	42
130.9604	263
133.8376	55
134.8606	31
136.814	51
138.5393	70
139.3688	51
140.0934	43
141.1161	52
141.8308	40
142.5529	56
143.2895	116
144.0529	69
144.8966	37
146.2008	64
147.598	70
148.7742	96
152.8926	67
155.5257	39
156.439	42
157.1792	55
158.407	45
159.5622	37
160.6106	55
161.0469	427
162.6488	302
164.0394	66
164.5225	48
165.5603	59
167.3908	81
167.9752	59
169.7195	48
170.1652	78
172.2586	55
173.8347	36
176.1039	58
176.7549	67
177.1923	64
178.4741	50
179.0584	111
181.0484	999
182.6692	37
183.9356	40
184.8076	47
201.3841	34
202.2317	39
215.9533	39
221.0056	31
226.662	34
238.1529	40
281.6676	62
310.6261	37
343.9563	47
377.979	37
383.228	34
401.7415	42
413.7846	33
423.995	64
434.6841	58
452.3177	33
470.0144	50
472.2688	33
481.0229	42
491.6169	62
535.4858	33
657.4999	37
669.7841	51
699.6821	42
735.2576	40
757.6584	36
799.776	39
838.4692	50
866.979	36
894.2834	50
897.9619	59
899.5588	34
925.6656	39
