Mass spectrum: Succinylacetone; LC-ESI-ITFT; MS2; CE: 60;  [M-H]-
Name: Succinylacetone
Class: Organic acids and derivatives; Keto acids and derivatives; Medium-chain keto acids and derivatives
Formula: C7H10O4
Exact mass: 158.05791
SMILES: CC(=O)CC(=O)CCC(O)=O
InChI: InChI=1S/C7H10O4/c1-5(8)4-6(9)2-3-7(10)11/h2-4H2,1H3,(H,10,11)
Instrument: Thermo Scientific Q-Exactive Focus
Instrument type: LC-ESI-ITFT
Ms type: MS2
Ion mode: NEGATIVE
Ionization: ESI
Collision energy: 60
Column name: Acquity CSHC18
Retention time: 2.028 min
Base peak: 157.05063
Precursor m/z: 157.05063
Precursor type: [M-H]-
m/z	relative intensity
51.6628	781
64.2786	774
67.0765	812
71.8395	818
97.9191	854
108.0443	829
125.4898	999
127.4042	856
144.2515	813
170.1754	947
