Mass spectrum: 3-Methylhistidine; ESI-TOF; MS2; CE: 0.6458333;  [M+H]+
Name: 3-Methylhistidine
Class: NA
Formula: C7H11N3O2
Exact mass: 169.08513
SMILES: CN1C=NC=C1CC(N)C(O)=O
InChI: InChI=1S/C7H11N3O2/c1-10-4-9-3-5(10)2-6(8)7(11)12/h3-4,6H,2,8H2,1H3,(H,11,12)
Instrument: waters xevo g2 TOF
Instrument type: ESI-TOF
Ms type: MS2
Ion mode: POSITIVE
Ionization: ESI
Collision energy: 0.6458333
Column name: Acquity CSHC18
Retention time: 0.492 min
Base peak: 170.09313
Precursor m/z: 170.09313
Precursor type: [M+H]+
m/z	relative intensity
68.0505	43
73.944	1
79.0547	7
81.0459	23
82.0657	22
83.0611	85
85.0186	8
91.9563	2
95.0609	359
96.0688	921
97.0759	449
98.0787	20
100.9913	9
109.0767	999
110.0799	82
119.0498	1
124.0874	22
125.0143	67
126.1033	250
127.106	18
135.0447	20
145.0175	14
152.0041	12
153.0662	64
170.0929	441
171.0959	41
