Mass spectrum: Myricetin 3,7,3',4'-tetramethyl ether; LC-ESI-QTOF; MS2; CE: 50eV;  [M+H]+
Name: Myricetin 3,7,3',4'-tetramethyl ether
Class: Flavonol
Formula: C19H18O8
Exact mass: 374.1002
SMILES: COC1=CC(=C2C(=C1)OC(=C(C2=O)OC)C3=CC(=C(C(=C3)OC)OC)O)O
InChI: InChI=1S/C19H18O8/c1-23-10-7-11(20)15-13(8-10)27-17(19(26-4)16(15)22)9-5-12(21)18(25-3)14(6-9)24-2/h5-8,20-21H,1-4H3
Instrument: TIMS-TOF Pro, Bruker Daltonik; Elute UHPLC System, Bruker Daltonik
Instrument type: LC-ESI-QTOF
Ms type: MS2
Ion mode: POSITIVE
Ionization: ESI
Collision energy: 50eV
Column name: Acquity CSHC18
Retention time: 9.716 min
Base peak: 375.1052
Precursor m/z: 375.1052
Precursor type: [M+H]+
Precursor intensity: 1208495
m/z	relative intensity
41.4273	3
188.0468	5
218.041	3
219.059	7
231.0663	13
243.0625	9
258.0874	3
271.0598	13
285.033	4
287.0536	4
289.0679	4
314.0412	25
315.0514	6
316.0576	15
317.0654	9
327.0449	4
330.0358	6
331.0829	5
345.0617	16
350.3842	1
359.0708	9
360.0848	133
361.088	22
361.8542	3
375.059	30
375.1082	999
