Mass spectrum: N-Alpha-acetyllysine; LC-ESI-ITFT; MS2; CE: 10;  [M+H]+
Name: N-Alpha-acetyllysine
Class: Organic acids and derivatives; Carboxylic acids and derivatives; Amino acids, peptides, and analogues
Formula: C8H16N2O3
Exact mass: 188.11609
SMILES: CC(=O)NC(CCCCN)C(O)=O
InChI: InChI=1S/C8H16N2O3/c1-6(11)10-7(8(12)13)4-2-3-5-9/h7H,2-5,9H2,1H3,(H,10,11)(H,12,13)
Instrument: Thermo Scientific Q-Exactive Focus
Instrument type: LC-ESI-ITFT
Ms type: MS2
Ion mode: POSITIVE
Ionization: ESI
Collision energy: 10
Column name: Acquity CSHC18
Retention time: 0.348 min
Base peak: 189.12337
Precursor m/z: 189.12337
Precursor type: [M+H]+
m/z	relative intensity
84.0812	599
101.1076	43
126.0915	119
129.1024	999
130.0864	266
147.1128	214
153.1022	64
171.1128	72
172.0968	114
189.1234	740
