Mass spectrum: Thymine; LC-ESI-QTOF; MS2; CE: 15.00;  [M+H]+
Name: Thymine
Class: NA
Formula: C5H6N2O2
Exact mass: 126.0429
SMILES: CC1=CNC(=O)NC1=O
InChI: InChI=1S/C5H6N2O2/c1-3-2-6-5(9)7-4(3)8/h2H,1H3,(H2,6,7,8,9)
Instrument: Bruker MicrOTOF-Q
Instrument type: LC-ESI-QTOF
Ms type: MS2
Ion mode: POSITIVE
Ionization: ESI
Collision energy: 15.00
Column name: Acquity CSHC18
Retention time: NA
Base peak: 127.0502
Precursor m/z: 127.0502
Precursor type: [M+H]+
m/z	relative intensity
54.5204	3
81.0257	3
82.0422	2
84.0385	5
109.0356	297
109.2131	2
109.6756	4
109.9449	8
110.0196	999
110.3016	2
110.4019	2
110.4406	2
110.6682	2
111.0233	81
111.7134	2
127.0471	794
127.2472	3
127.3274	3
127.6417	4
128.0515	73
203.8176	2
483.3244	2
