Mass spectrum: Cadaverine; LC-ESI-ITFT; MS2; CE: 40;  [M+H]+
Name: Cadaverine
Class: Organic nitrogen compounds; Organonitrogen compounds; Amines
Formula: C5H14N2
Exact mass: 102.11570
SMILES: NCCCCCN
InChI: InChI=1S/C5H14N2/c6-4-2-1-3-5-7/h1-7H2
Instrument: Thermo Scientific Q-Exactive Focus
Instrument type: LC-ESI-ITFT
Ms type: MS2
Ion mode: POSITIVE
Ionization: ESI
Collision energy: 40
Column name: Acquity CSHC18
Retention time: 1.465 min
Base peak: 103.12298
Precursor m/z: 103.12298
Precursor type: [M+H]+
m/z	relative intensity
50.028	146
53.0027	999
54.0105	152
63.9056	148
69.4899	147
92.8255	152
96.4388	144
106.0923	158
116.0829	152
123.065	169
