Mass spectrum: PROLINE; LC-ESI-QFT; MS2; CE: 30eV;  [M+H]+
Name: PROLINE
Class: NA
Formula: C5H9NO2
Exact mass: 115.06333
SMILES: OC(=O)[C@@H]1CCCN1
InChI: InChI=1S/C5H9NO2/c7-5(8)4-2-1-3-6-4/h4,6H,1-3H2,(H,7,8)/t4-/m0/s1
Instrument: Q-Exactive Orbitrap, Thermo Scientfic; Ultimate 3000 HPLC, Thermo Scientfic
Instrument type: LC-ESI-QFT
Ms type: MS2
Ion mode: POSITIVE
Ionization: ESI
Collision energy: 30eV
Column name: Acquity CSHC18
Retention time: 0.608 min
Base peak: 116.0706
Precursor m/z: 116.0706
Precursor type: [M+H]+
Precursor intensity: 179
m/z	relative intensity
51.1432	28
52.4057	29
57.2454	27
60.0829	27
65.4261	27
67.0011	30
68.05	112
69.0706	32
69.977	25
70.881	25
71.0629	36
71.0692	999
74.0608	31
74.0973	41
75.0267	149
87.2672	31
88.0763	67
89.7121	30
93.0373	116
106.0953	31
116.1073	131
117.0743	426
