Mass spectrum: L-Homoserine lactone; LC-ESI-ITFT; MS2; CE: 40;  [M+H]+
Name: L-Homoserine lactone
Class: NA
Formula: C4H7NO2
Exact mass: 101.04768
SMILES: C1COC(=O)[C@H]1N
InChI: InChI=1S/C4H7NO2/c5-3-1-2-7-4(3)6/h3H,1-2,5H2/t3-/m0/s1
Instrument: Thermo Scientific Q-Exactive Focus
Instrument type: LC-ESI-ITFT
Ms type: MS2
Ion mode: POSITIVE
Ionization: ESI
Collision energy: 40
Column name: Acquity CSHC18
Retention time: 0.960 min
Base peak: 102.05496
Precursor m/z: 102.05496
Precursor type: [M+H]+
m/z	relative intensity
50.8354	92
56.05	999
58.8318	87
73.4131	99
86.5292	103
97.6313	94
101.6699	87
102.4889	98
115.5579	99
116.0814	96
