Mass spectrum: N-ACETYLGALACTOSAMINE; LC-ESI-QFT; MS2; CE: 30eV;  [M+H]+
Name: N-ACETYLGALACTOSAMINE
Class: NA
Formula: C8H15NO6
Exact mass: 221.08994
SMILES: CC(=O)N[C@H]1[C@H](O)O[C@H](CO)[C@H](O)[C@@H]1O
InChI: InChI=1S/C8H15NO6/c1-3(11)9-5-7(13)6(12)4(2-10)15-8(5)14/h4-8,10,12-14H,2H2,1H3,(H,9,11)/t4-,5-,6+,7-,8-/m1/s1
Instrument: Q-Exactive Orbitrap, Thermo Scientfic; Ultimate 3000 HPLC, Thermo Scientfic
Instrument type: LC-ESI-QFT
Ms type: MS2
Ion mode: POSITIVE
Ionization: ESI
Collision energy: 30eV
Column name: Acquity CSHC18
Retention time: 0.579 min
Base peak: 222.0972
Precursor m/z: 222.0972
Precursor type: [M+H]+
Precursor intensity: 192
m/z	relative intensity
52.4635	3
52.9907	2
54.2179	3
54.7605	3
55.0549	2
56.045	3
56.2873	3
57.0706	3
57.2573	3
58.066	7
60.0452	194
60.0818	2
62.9977	2
66.2793	3
67.5018	3
68.0503	6
68.9953	3
71.3295	3
72.0452	6
73.0292	3
73.4727	4
79.3077	2
79.5584	3
80.0503	15
81.0342	16
84.0451	264
84.0654	3
85.0292	3
85.0485	4
96.0451	131
96.9001	3
97.0291	62
97.0485	5
98.0607	116
99.0446	4
100.8843	3
102.6741	3
103.5741	3
104.5923	3
108.045	47
109.029	27
114.0556	6
116.0713	5
120.0962	3
123.0883	3
126.0554	999
127.0395	60
127.0588	38
138.0553	518
139.0587	31
140.0711	5
144.0659	754
145.0692	24
150.0553	12
153.9811	4
163.0395	7
168.0659	185
169.0692	4
176.6829	3
178.1232	18
186.0766	403
187.0798	23
204.0872	148
205.0905	4
208.4133	3
210.517	3
221.1403	3
222.1132	47
225.0434	48
