Mass spectrum: gamma-Aminobutyric acid; LC-ESI-ITFT; MS2; CE: 20;  [M+H]+
Name: gamma-Aminobutyric acid
Class: Organic acids and derivatives; Carboxylic acids and derivatives; Amino acids, peptides, and analogues
Formula: C4H9NO2
Exact mass: 103.06333
SMILES: NCCCC(O)=O
InChI: InChI=1S/C4H9NO2/c5-3-1-2-4(6)7/h1-3,5H2,(H,6,7)
Instrument: Thermo Scientific Q-Exactive Focus
Instrument type: LC-ESI-ITFT
Ms type: MS2
Ion mode: POSITIVE
Ionization: ESI
Collision energy: 20
Column name: Acquity CSHC18
Retention time: 0.631 min
Base peak: 104.07061
Precursor m/z: 104.07061
Precursor type: [M+H]+
m/z	relative intensity
54.0277	5
58.0657	12
67.2104	5
68.05	73
69.034	999
75.0973	5
86.0605	77
87.0445	624
90.3057	5
93.4905	5
