Mass spectrum: Epinephrine; LC-ESI-ITFT; MS2; CE: 40;  [M+H]+
Name: Epinephrine
Class: Benzenoids; Phenols; Benzenediols
Formula: C9H13NO3
Exact mass: 183.08954
SMILES: CNC[C@H](O)C1=CC(O)=C(O)C=C1
InChI: InChI=1S/C9H13NO3/c1-10-5-9(13)6-2-3-7(11)8(12)4-6/h2-4,9-13H,5H2,1H3/t9-/m0/s1
Instrument: Thermo Scientific Q-Exactive Focus
Instrument type: LC-ESI-ITFT
Ms type: MS2
Ion mode: POSITIVE
Ionization: ESI
Collision energy: 40
Column name: Acquity CSHC18
Retention time: 1.463 min
Base peak: 184.09682
Precursor m/z: 184.09682
Precursor type: [M+H]+
m/z	relative intensity
53.0392	536
56.0501	316
57.0579	351
77.039	305
79.0547	647
81.0339	333
91.0546	406
95.0495	999
107.0494	515
123.0442	960
