Mass spectrum: 3,5-DIIODO-L-TYROSINE; LC-ESI-QFT; MS2; CE: 30eV;  [M+H]+
Name: 3,5-DIIODO-L-TYROSINE
Class: NA
Formula: C9H9I2NO3
Exact mass: 432.86719
SMILES: N[C@@H](CC1=CC(I)=C(O)C(I)=C1)C(O)=O
InChI: InChI=1S/C9H9I2NO3/c10-5-1-4(2-6(11)8(5)13)3-7(12)9(14)15/h1-2,7,13H,3,12H2,(H,14,15)/t7-/m0/s1
Instrument: Q-Exactive Orbitrap, Thermo Scientfic; Ultimate 3000 HPLC, Thermo Scientfic
Instrument type: LC-ESI-QFT
Ms type: MS2
Ion mode: POSITIVE
Ionization: ESI
Collision energy: 30eV
Column name: Acquity CSHC18
Retention time: 5.990 min
Base peak: 433.8745
Precursor m/z: 433.8745
Precursor type: [M+H]+
Precursor intensity: 199
m/z	relative intensity
52.3376	1
52.4534	1
58.0593	1
60.7822	1
65.6967	1
70.7285	1
71.1191	1
74.0971	2
75.5045	1
78.2017	1
79.0244	2
82.9228	1
86.7103	1
92.402	1
94.6385	1
99.9618	2
101.4078	2
107.0498	13
111.5694	1
117.0577	2
129.083	1
129.9077	1
133.0524	32
134.0603	41
163.0391	10
195.0243	2
202.8135	1
219.9383	57
232.9461	14
233.9539	49
237.8686	2
243.9383	61
243.9592	2
244.9461	2
245.9534	17
246.9252	2
247.9333	10
250.7067	2
259.9572	30
260.9648	777
261.9489	45
261.9681	31
271.9332	114
272.9395	10
288.9359	20
289.9438	999
290.9474	55
302.2332	2
370.8429	72
371.8464	3
372.8594	2
374.8379	351
375.8405	13
388.8728	89
397.5385	2
398.8379	43
400.8544	2
416.8484	133
417.8517	2
433.8756	55
433.9036	2
