Mass spectrum: 1-Methylindole-3-carboxylic acid; LC-ESI-QTOF; MS2; CE: 15.00;  [M+H]+
Name: 1-Methylindole-3-carboxylic acid
Class: NA
Formula: C10H9NO2
Exact mass: 175.0633
SMILES: CN1C=C(C2=CC=CC=C21)C(=O)O
InChI: InChI=1S/C10H9NO2/c1-11-6-8(10(12)13)7-4-2-3-5-9(7)11/h2-6H,1H3,(H,12,13)
Instrument: Bruker MicrOTOF-Q
Instrument type: LC-ESI-QTOF
Ms type: MS2
Ion mode: POSITIVE
Ionization: ESI
Collision energy: 15.00
Column name: Acquity CSHC18
Retention time: NA
Base peak: 176.0706
Precursor m/z: 176.0706
Precursor type: [M+H]+
m/z	relative intensity
117.06	704
131.07	133
132.08	999
158.06	387
