Mass spectrum: Pantothenic acid; ESI-TOF; MS2; CE: 0.6458333;  [M+H]+
Name: Pantothenic acid
Class: NA
Formula: C9H17NO5
Exact mass: 219.11067
SMILES: CC(C)(CO)C(O)C(=O)NCCC(O)=O
InChI: InChI=1S/C9H17NO5/c1-9(2,5-11)7(14)8(15)10-4-3-6(12)13/h7,11,14H,3-5H2,1-2H3,(H,10,15)(H,12,13)
Instrument: waters xevo g2 TOF
Instrument type: ESI-TOF
Ms type: MS2
Ion mode: POSITIVE
Ionization: ESI
Collision energy: 0.6458333
Column name: Acquity CSHC18
Retention time: 1.700 min
Base peak: 220.11867
Precursor m/z: 220.11867
Precursor type: [M+H]+
m/z	relative intensity
67.0556	32
72.0453	51
73.0294	51
85.0659	202
90.0558	999
95.0496	235
98.0243	468
100.0404	51
103.076	110
113.0602	86
116.0347	199
124.0763	802
125.0793	65
128.0028	103
142.0872	282
153.0529	62
166.0873	59
184.0975	338
200.9725	82
202.1081	460
203.1118	41
220.1189	150
