Mass spectrum: D-Tagatose; ESI-TOF; MS2; CE: 0.6458333;  [M+H]+
Name: D-Tagatose
Class: NA
Formula: C6H12O6
Exact mass: 180.06339
SMILES: OCC(O)C(O)C(O)C(=O)CO
InChI: InChI=1S/C6H12O6/c7-1-3(9)5(11)6(12)4(10)2-8/h3,5-9,11-12H,1-2H2
Instrument: waters xevo g2 TOF
Instrument type: ESI-TOF
Ms type: MS2
Ion mode: POSITIVE
Ionization: ESI
Collision energy: 0.6458333
Column name: Acquity CSHC18
Retention time: 0.556 min
Base peak: 181.07139
Precursor m/z: 181.07139
Precursor type: [M+H]+
m/z	relative intensity
85.0283	15
145.0493	15
168.9599	259
178.1237	15
184.9861	15
186.9687	501
187.0783	15
203.053	999
204.0558	15
216.9796	289
243.9661	67
261.9764	15
280.9958	15
294.0027	15
303.0033	15
324.0142	15
325.0196	15
383.1172	15
396.0337	15
414.0474	15
415.0512	15
