Mass spectrum: Quinolinic acid; LC-ESI-ITFT; MS2; CE: 100;  [M+H]+
Name: Quinolinic acid
Class: Organoheterocyclic compounds; Pyridines and derivatives; Pyridinecarboxylic acids and derivatives
Formula: C7H5NO4
Exact mass: 167.02186
SMILES: OC(=O)C1=CC=CN=C1C(O)=O
InChI: InChI=1S/C7H5NO4/c9-6(10)4-2-1-3-8-5(4)7(11)12/h1-3H,(H,9,10)(H,11,12)
Instrument: Thermo Scientific Q-Exactive Focus
Instrument type: LC-ESI-ITFT
Ms type: MS2
Ion mode: POSITIVE
Ionization: ESI
Collision energy: 100
Column name: Acquity CSHC18
Retention time: 2.306 min
Base peak: 168.02913
Precursor m/z: 168.02913
Precursor type: [M+H]+
m/z	relative intensity
50.0157	357
51.0236	80
52.0188	999
53.0028	354
53.9981	262
55.0184	27
60.5926	15
65.0028	43
75.0108	44
92.5242	25
