Mass spectrum: Dihomo-gamma-Linolenoyl ethanolamide; LC-ESI-ITFT; MS2; CE: 10;  [M+H]+
Name: Dihomo-gamma-Linolenoyl ethanolamide
Class: Organic nitrogen compounds; Organonitrogen compounds; Amines
Formula: C22H39NO2
Exact mass: 349.29808
SMILES: CCCCC\C=C/C\C=C/C\C=C/CCCCCCC(=O)NCCO
InChI: InChI=1S/C22H39NO2/c1-2-3-4-5-6-7-8-9-10-11-12-13-14-15-16-17-18-19-22(25)23-20-21-24/h6-7,9-10,12-13,24H,2-5,8,11,14-21H2,1H3,(H,23,25)/b7-6-,10-9-,13-12-
Instrument: Thermo Scientific Q-Exactive Focus
Instrument type: LC-ESI-ITFT
Ms type: MS2
Ion mode: POSITIVE
Ionization: ESI
Collision energy: 10
Column name: Acquity CSHC18
Retention time: NA
Base peak: 350.30536
Precursor m/z: 350.30536
Precursor type: [M+H]+
m/z	relative intensity
62.0606	999
95.0858	29
186.1487	28
200.1643	27
205.1949	28
271.2415	65
289.2521	88
332.2942	42
333.2785	47
350.3051	646
