Mass spectrum: 4-Methylumbelliferone; LC-ESI-QTOF; MS2; CE: 15.00;  [M+H]+
Name: 4-Methylumbelliferone
Class: NA
Formula: C10H8O3
Exact mass: 176.0473
SMILES: CC1=CC(=O)OC2=C1C=CC(=C2)O
InChI: InChI=1S/C10H8O3/c1-6-4-10(12)13-9-5-7(11)2-3-8(6)9/h2-5,11H,1H3
Instrument: Bruker MicrOTOF-Q
Instrument type: LC-ESI-QTOF
Ms type: MS2
Ion mode: POSITIVE
Ionization: ESI
Collision energy: 15.00
Column name: Acquity CSHC18
Retention time: NA
Base peak: 177.0546
Precursor m/z: 177.0546
Precursor type: [M+H]+
m/z	relative intensity
105.47	1
121.08	1
159.02	1
176.04	1
176.2	2
176.89	2
176.95	3
177.05	999
177.18	2
177.31	3
177.39	2
177.47	2
177.55	1
177.61	1
177.76	1
177.87	1
177.94	2
178.06	129
178.24	1
178.32	1
178.46	1
179.06	10
182.28	1
230.99	1
248.97	1
370.86	1
400.99	1
402.67	1
408.9	1
