Mass spectrum: CAY10510; ESI-TOF; MS2; CE: 0.6458333;  [M+H]+
Name: CAY10510
Class: NA
Formula: C24H33FO5
Exact mass: 420.23120
SMILES: FC(C=CC=C1)=C1C#CC(O)CC[C@H]2[C@H](O)C[C@H](O)[C@@H]2CCCCCCC(OC)=O
InChI: InChI=1S/C24H33FO5/c1-30-24(29)11-5-3-2-4-9-19-20(23(28)16-22(19)27)15-14-18(26)13-12-17-8-6-7-10-21(17)25/h6-8,10,18-20,22-23,26-28H,2-5,9,11,14-16H2,1H3/t18?,19-,20-,22+,23-/m1/s1
Instrument: waters xevo g2 TOF
Instrument type: ESI-TOF
Ms type: MS2
Ion mode: POSITIVE
Ionization: ESI
Collision energy: 0.6458333
Column name: Acquity CSHC18
Retention time: 3.805 min
Base peak: 421.23920
Precursor m/z: 421.23920
Precursor type: [M+H]+
m/z	relative intensity
81.0704	32
85.065	4
91.055	31
95.059	14
97.0654	5
105.071	21
107.087	11
109.0466	180
110.0482	9
111.0794	3
117.0713	32
119.0863	17
121.1036	5
123.0251	999
124.0288	70
129.0703	29
130.0749	3
131.0868	102
132.0898	9
133.1023	15
135.0622	53
141.0697	14
143.086	15
145.101	14
146.0534	11
147.0893	19
155.0862	11
157.1018	11
159.0892	21
161.0776	43
167.0854	5
168.0576	4
169.1022	13
171.1173	10
173.132	9
175.0563	17
178.074	5
183.0595	13
185.0446	13
187.0895	6
193.123	12
196.072	50
197.0765	49
198.0838	4
199.0263	8
201.0695	2
203.0833	18
207.1137	3
209.0753	11
211.0922	28
212.0864	40
212.5878	14
213.1262	7
215.0866	14
216.1473	3
217.0992	4
221.0903	24
221.5912	3
223.0928	25
225.1082	14
226.1136	14
233.1592	4
235.0953	11
237.1081	45
238.112	5
241.072	27
242.1078	9
247.1312	12
251.1241	21
253.102	7
255.1172	16
261.1456	6
265.1044	3
275.0735	2
283.1187	12
306.0938	4
307.1847	13
317.1702	33
318.175	7
321.1379	44
322.1409	4
326.2008	2
327.1048	2
335.1816	67
337.1094	30
338.1227	5
339.1472	31
353.1917	141
354.1957	23
355.1225	42
356.128	7
357.1706	21
359.1206	12
360.1191	5
367.2069	83
371.1997	14
372.2048	4
385.1675	125
386.2208	62
387.2267	6
391.1442	8
409.1532	19
413.1998	11
413.6968	7
422.2211	45
422.7134	24
423.1597	7
