Mass spectrum: 16:0 SM (d18:1/16:0); ESI-TOF; MS2; CE: 0.6458333;  [M+H]+
Name: 16:0 SM (d18:1/16:0)
Class: NA
Formula: C39H79N2O6P
Exact mass: 702.56757
SMILES: [H]OC([H])(C([H])=C([H])C([H])([H])C([H])([H])C([H])([H])C([H])([H])C([H])([H])C([H])([H])C([H])([H])C([H])([H])C([H])([H])C([H])([H])C([H])([H])C([H])([H])C([H])([H])[H])C([H])(N([H])C(=O)C([H])([H])C([H])([H])C([H])([H])C([H])([H])C([H])([H])C([H])([H])C([H])([H])C([H])([H])C([H])([H])C([H])([H])C([H])([H])C([H])([H])C([H])([H])C([H])([H])C([H])([H])[H])C([H])([H])OP(=O)([O-])OC([H])([H])C([H])([H])[N+](C([H])([H])[H])(C([H])([H])[H])C([H])([H])[H]
InChI: InChI=1S/C39H79N2O6P/c1-6-8-10-12-14-16-18-20-22-24-26-28-30-32-38(42)37(36-47-48(44,45)46-35-34-41(3,4)5)40-39(43)33-31-29-27-25-23-21-19-17-15-13-11-9-7-2/h30,32,37-38,42H,6-29,31,33-36H2,1-5H3,(H-,40,43,44,45)
Instrument: waters xevo g2 TOF
Instrument type: ESI-TOF
Ms type: MS2
Ion mode: POSITIVE
Ionization: ESI
Collision energy: 0.6458333
Column name: Acquity CSHC18
Retention time: 10.688 min
Base peak: 703.57557
Precursor m/z: 703.57557
Precursor type: [M+H]+
m/z	relative intensity
86.0969	13
104.1077	34
125.0002	10
143.0163	3
144.0196	16
145.0133	10
162.029	1
162.9471	40
184.0736	999
185.0771	119
186.0782	17
193.0143	3
222.0209	12
234.6322	4
237.9923	1
239.143	3
264.2687	28
271.124	1
282.1067	1
295.1931	1
305.1393	4
362.2593	16
362.7605	4
370.2463	2
371.7667	9
372.7741	1
395.0169	1
418.2029	4
462.7975	4
470.281	1
470.7841	1
471.285	1
473.2194	1
502.4988	9
509.1528	1
520.5098	8
521.3871	2
537.3953	12
538.3993	7
541.4475	1
542.58	4
543.4941	1
544.3734	2
587.3817	13
589.3908	1
625.3845	1
628.4672	3
628.9703	1
644.4628	1
666.4838	12
667.4869	4
668.4886	2
685.4366	9
686.5706	5
693.0132	5
693.5153	5
694.5176	1
703.5744	151
704.5784	67
