Mass spectrum: 15(R)-Prostaglandin E2; ESI-TOF; MS2; CE: 0.6458333;  [M+H]+
Name: 15(R)-Prostaglandin E2
Class: NA
Formula: C20H32O5
Exact mass: 352.22497
SMILES: O=C1[C@H](C/C=C\CCCC(O)=O)[C@@H](/C=C/[C@H](O)CCCCC)[C@H](O)C1
InChI: InChI=1S/C20H32O5/c1-2-3-6-9-15(21)12-13-17-16(18(22)14-19(17)23)10-7-4-5-8-11-20(24)25/h4,7,12-13,15-17,19,21,23H,2-3,5-6,8-11,14H2,1H3,(H,24,25)/b7-4-,13-12+/t15-,16-,17-,19-/m1/s1
Instrument: waters xevo g2 TOF
Instrument type: ESI-TOF
Ms type: MS2
Ion mode: POSITIVE
Ionization: ESI
Collision energy: 0.6458333
Column name: Acquity CSHC18
Retention time: 3.483 min
Base peak: 353.23297
Precursor m/z: 353.23297
Precursor type: [M+H]+
m/z	relative intensity
77.0396	42
79.0545	199
81.0703	222
83.0848	51
91.0548	671
93.0701	598
95.0854	206
105.0712	901
107.0867	295
117.0704	488
118.0698	31
121.0664	211
129.0697	651
130.0753	87
131.086	817
133.102	323
135.0823	156
141.0701	301
143.086	343
145.1018	481
147.1165	219
148.0856	37
149.1135	47
155.0853	456
157.1006	394
159.0819	480
169.1007	587
170.1056	57
171.1174	204
172.1221	60
173.1324	138
175.111	97
182.0057	73
183.1171	436
185.0967	210
197.0948	192
199.1113	125
201.1283	167
203.1418	115
207.0892	31
211.1123	271
215.1423	318
227.1794	176
228.182	31
229.1954	166
237.1595	54
245.1901	246
253.1948	148
255.176	125
257.1884	127
271.2055	210
273.1836	131
281.1904	588
282.1906	78
299.2009	999
300.2037	184
303.1636	751
304.1686	59
317.2114	371
318.2134	56
319.1322	195
329.1732	130
