Mass spectrum: URIDINE DIPHOSPHATE-N-ACETYLGLUCOSAMINE; LC-ESI-QFT; MS2; CE: 30eV;  [M-H]-
Name: URIDINE DIPHOSPHATE-N-ACETYLGLUCOSAMINE
Class: NA
Formula: C17H27N3O17P2
Exact mass: 607.08157
SMILES: CC(=O)N[C@@H]1[C@@H](O)[C@H](O)[C@@H](CO)O[C@@H]1OP(O)(=O)OP(O)(=O)OC[C@H]1O[C@H]([C@H](O)[C@@H]1O)N1C=CC(=O)NC1=O
InChI: InChI=1S/C17H27N3O17P2/c1-6(22)18-10-13(26)11(24)7(4-21)35-16(10)36-39(31,32)37-38(29,30)33-5-8-12(25)14(27)15(34-8)20-3-2-9(23)19-17(20)28/h2-3,7-8,10-16,21,24-27H,4-5H2,1H3,(H,18,22)(H,29,30)(H,31,32)(H,19,23,28)/t7-,8-,10-,11-,12-,13-,14-,15-,16-/m1/s1
Instrument: Q-Exactive Orbitrap, Thermo Scientfic; Ultimate 3000 HPLC, Thermo Scientfic
Instrument type: LC-ESI-QFT
Ms type: MS2
Ion mode: NEGATIVE
Ionization: ESI
Collision energy: 30eV
Column name: Acquity CSHC18
Retention time: 0.630 min
Base peak: 606.0743
Precursor m/z: 606.0743
Precursor type: [M-H]-
Precursor intensity: 140
m/z	relative intensity
51.8941	6
61.4001	6
65.3407	7
73.576	7
76.9497	7
78.9575	801
92.1539	11
93.9151	10
96.9681	365
98.8758	8
103.7434	9
111.0185	166
119.5827	8
134.1595	7
150.9788	10
158.9241	657
162.9791	18
166.2113	8
174.9787	71
176.9348	355
187.2482	7
192.9902	9
201.5668	9
211.0007	18
231.8827	8
237.5739	8
246.0169	34
254.9463	13
260.9568	149
264.0274	82
268.956	8
272.9571	971
273.9607	33
280.0226	13
282.0383	679
283.0423	35
290.9691	11
300.0489	119
305.0182	136
323.0285	205
324.0326	15
343.9946	56
362.0045	247
384.9843	999
385.9883	79
402.9945	212
508.0965	13
526.107	11
563.9183	9
565.247	9
606.0754	99
632.1865	9
