Mass spectrum: orobol 8-C-glucoside; LC-ESI-ITFT; MS2; CE: 0.3;  [M-H]-
Name: orobol 8-C-glucoside
Class: isoflavones
Formula: C21H20O11
Exact mass: 448.1006
SMILES: O=C1C2=C(C([C@]([C@]([C@@]3([H])O[H])([H])O[H])([H])O[C@@](C([H])([H])O[H])([H])[C@@]3([H])O[H])=C(C([H])=C2O[H])O[H])OC([H])=C1C(C([H])=C4[H])=C([H])C(O[H])=C4O[H]
InChI: InChI=1S/C21H20O11/c22-5-13-17(28)18(29)19(30)21(32-13)15-12(26)4-11(25)14-16(27)8(6-31-20(14)15)7-1-2-9(23)10(24)3-7/h1-4,6,13,17-19,21-26,28-30H,5H2/t13-,17-,18+,19-,21+/m1/s1
Instrument: LTQ-Orbitrap XL hybrid mass spectrometer (Thermo Scientific)
Instrument type: LC-ESI-ITFT
Ms type: MS2
Ion mode: NEGATIVE
Ionization: ESI
Collision energy: 0.3
Column name: Acquity CSHC18
Retention time: 4.122 min
Base peak: 447.0923
Precursor m/z: 447.0923
Precursor type: [M-H]-
Precursor intensity: 9589007
m/z	relative intensity
117.7056	1
120.8552	1
124.9889	1
137.3048	1
141.3701	1
144.1237	1
146.106	1
154.4759	1
155.7003	1
156.9529	1
160.2425	1
165.5533	1
165.8012	1
167.0099	1
168.6888	1
175.0795	1
175.726	1
177.0179	1
179.0368	1
180.4067	1
184.9457	1
206.9652	1
209.1629	1
216.2019	1
226.1314	1
237.6177	1
239.7786	1
248.3301	1
252.2329	1
254.8083	1
260.144	1
275.0198	1
282.1991	1
283.0242	1
295.8141	1
298.8902	1
299.0554	32
309.0393	2
310.3357	1
311.432	1
313.8087	1
318.2615	1
324.4889	3
325.6742	1
326.7154	2
326.7382	2
326.7728	2
326.7844	2
326.8052	2
326.8265	2
326.8583	2
326.878	3
326.9005	4
326.9325	5
326.9476	4
326.9652	4
326.9805	4
327.0052	4
327.0503	999
327.1096	4
327.1272	5
327.1442	4
327.1634	4
327.2001	4
327.2723	3
327.325	2
327.3442	2
328.0536	49
329.6385	3
339.0505	2
357.0605	24
369.0602	4
371.3669	1
372.7371	1
374.7833	1
381.9657	1
382.2945	1
406.1682	1
408.3211	2
416.2867	1
416.5455	1
418.5866	1
426.0557	1
429.0811	1
