Mass spectrum: 3-Feruloylquinic acid; LC-ESI-QTOF; MS2; CE: 50eV;  [M-H]-
Name: 3-Feruloylquinic acid
Class: quinic acid derivative
Formula: C17H20O9
Exact mass: 368.1107
SMILES: COC1=C(C=CC(=C1)C=CC(=O)OC2CC(CC(C2O)O)(C(=O)O)O)O
InChI: InChI=1S/C17H20O9/c1-25-12-6-9(2-4-10(12)18)3-5-14(20)26-13-8-17(24,16(22)23)7-11(19)15(13)21/h2-6,11,13,15,18-19,21,24H,7-8H2,1H3,(H,22,23)
Instrument: TIMS-TOF Pro, Bruker Daltonik; Elute UHPLC System, Bruker Daltonik
Instrument type: LC-ESI-QTOF
Ms type: MS2
Ion mode: NEGATIVE
Ionization: ESI
Collision energy: 50eV
Column name: Acquity CSHC18
Retention time: 4.844 min
Base peak: 367.0975
Precursor m/z: 367.0975
Precursor type: [M-H]-
Precursor intensity: 63536.56
m/z	relative intensity
34.3236	5
41.0025	5
43.0166	20
44.9997	8
45.3951	6
57.0335	16
58.0044	9
60.9912	6
64.7578	4
67.0179	40
69.0336	43
71.01	8
71.7894	10
81.0306	12
82.7413	4
83.0485	19
85.0272	52
87.0087	30
87.7235	4
89.0427	7
93.0322	296
94.0356	31
95.0382	9
97.0283	12
98.9653	13
103.976	5
109.028	22
111.0426	40
112.0484	9
116.4962	7
119.3624	9
129.0141	9
132.0205	6
134.0336	308
134.3606	6
134.7886	4
135.0376	35
135.3255	4
136.0381	5
148.1449	3
150.3601	7
160.013	9
171.0244	5
173.0428	132
174.0481	13
191.0522	999
191.401	4
191.5952	5
192.056	52
192.2615	4
193.0471	41
367.0945	43
