Mass spectrum: Maltose; LC-ESI-QTOF; MS2; CE: 33.70;  [2M+H]+
Name: Maltose
Class: NA
Formula: C12H22O11
Exact mass: 342.1162
SMILES: C(C1C(C(C(C(O1)OC2C(OC(C(C2O)O)O)CO)O)O)O)O
InChI: InChI=1S/C12H22O11/c13-1-3-5(15)6(16)9(19)12(22-3)23-10-4(2-14)21-11(20)8(18)7(10)17/h3-20H,1-2H2
Instrument: Bruker MicrOTOF-Q
Instrument type: LC-ESI-QTOF
Ms type: MS2
Ion mode: POSITIVE
Ionization: ESI
Collision energy: 33.70
Column name: Acquity CSHC18
Retention time: NA
Base peak: 685.2397
Precursor m/z: 685.2397
Precursor type: [2M+H]+
m/z	relative intensity
85.0231	21
97.0237	21
109.0243	22
115.0361	28
127.0364	29
128.0396	54
145.048	57
146.0513	62
163.0599	67
164.0634	364
289.0899	431
325.1132	999
