Mass spectrum: HISTIDINOL; LC-ESI-QTOF; MS2; CE: 20;  [M-H]-
Name: HISTIDINOL
Class: NA
Formula: C6H11N3O
Exact mass: 141.09021
SMILES: N[C@H](CO)CC1=CN=CN1
InChI: InChI=1S/C6H11N3O/c7-5(3-10)1-6-2-8-4-9-6/h2,4-5,10H,1,3,7H2,(H,8,9)/t5-/m0/s1
Instrument: Agilent 6530Â Q-TOF LC/MS
Instrument type: LC-ESI-QTOF
Ms type: MS2
Ion mode: NEGATIVE
Ionization: ESI
Collision energy: 20
Column name: NA
Retention time: 0.200 min
Base peak: 140.08226
Precursor m/z: 140.08226
Precursor type: [M-H]-
Precursor intensity: 101
m/z	relative intensity
40.0139	220
58.0261	240
64.0156	253
78.0302	258
80.0439	285
81.0552	297
105.057	322
108.0342	610
138.0664	786
140.0783	999
