Mass spectrum: Tetrahydroalstonine; ESI-QTOF; MS2; CE: 30 eV;  [M+H]+
Name: Tetrahydroalstonine
Class: NA
Formula: C21H24N2O3
Exact mass: 352.1787
SMILES: CC1(C2(CN3CCC=4C5=CC=CC=C5NC4C3(CC2(C(=CO1)C(=O)OC)[H])[H])[H])[H]
InChI: InChI=1S/C21H24N2O3/c1-12-16-10-23-8-7-14-13-5-3-4-6-18(13)22-20(14)19(23)9-15(16)17(11-26-12)21(24)25-2/h3-6,11-12,15-16,19,22H,7-10H2,1-2H3
Instrument: Synapt (HDMS 1st gen)
Instrument type: ESI-QTOF
Ms type: MS2
Ion mode: POSITIVE
Ionization: ESI
Collision energy: 30 eV
Column name: Acquity CSHC18
Retention time: 12.824 min
Base peak: 353.1876
Precursor m/z: 353.1876
Precursor type: [M+H]+
Precursor intensity: 10659.11
m/z	relative intensity
117.0688	15
143.0737	16
144.0796	18
145.0847	21
178.0876	24
190.0873	35
199.1238	41
210.1134	53
222.1144	71
223.1183	95
321.1634	368
353.1891	999
