Mass spectrum: N-ACETYLLEUCINE; LC-ESI-QTOF; MS2; CE: 40;  [M-H]-
Name: N-ACETYLLEUCINE
Class: NA
Formula: C8H15NO3
Exact mass: 173.10519
SMILES: CC(C)C[C@H](NC(C)=O)C(O)=O
InChI: InChI=1S/C8H15NO3/c1-5(2)4-7(8(11)12)9-6(3)10/h5,7H,4H2,1-3H3,(H,9,10)(H,11,12)/t7-/m0/s1
Instrument: Agilent 6530Â Q-TOF LC/MS
Instrument type: LC-ESI-QTOF
Ms type: MS2
Ion mode: NEGATIVE
Ionization: ESI
Collision energy: 40
Column name: NA
Retention time: 0.200 min
Base peak: 172.09628
Precursor m/z: 172.09628
Precursor type: [M-H]-
Precursor intensity: 142
m/z	relative intensity
41.0196	117
42.0098	126
43.0156	127
58.0372	137
66.0412	228
72.007	397
130.0827	667
130.243	999
