Mass spectrum: THYMIDINE; LC-ESI-QTOF; MS2; CE: 40;  [M-H]-
Name: THYMIDINE
Class: NA
Formula: C10H14N2O5
Exact mass: 242.09027
SMILES: CC1=CN([C@H]2C[C@H](O)[C@@H](CO)O2)C(=O)NC1=O
InChI: InChI=1S/C10H14N2O5/c1-5-3-12(10(16)11-9(5)15)8-2-6(14)7(4-13)17-8/h3,6-8,13-14H,2,4H2,1H3,(H,11,15,16)/t6-,7+,8+/m0/s1
Instrument: Agilent 6530Â Q-TOF LC/MS
Instrument type: LC-ESI-QTOF
Ms type: MS2
Ion mode: NEGATIVE
Ionization: ESI
Collision energy: 40
Column name: NA
Retention time: 0.200 min
Base peak: 241.08759
Precursor m/z: 241.08759
Precursor type: [M-H]-
Precursor intensity: 101
m/z	relative intensity
42.0155	999
