Mass spectrum: Vanillyl alcohol; LC-ESI-QTOF; MS2; CE: 15.00;  [M-H2O+H]+
Name: Vanillyl alcohol
Class: NA
Formula: C8H10O3
Exact mass: 154.0630
SMILES: COC1=C(C=CC(=C1)CO)O
InChI: InChI=1S/C8H10O3/c1-11-8-4-6(5-9)2-3-7(8)10/h2-4,9-10H,5H2,1H3
Instrument: Bruker MicrOTOF-Q
Instrument type: LC-ESI-QTOF
Ms type: MS2
Ion mode: POSITIVE
Ionization: ESI
Collision energy: 15.00
Column name: Acquity CSHC18
Retention time: NA
Base peak: 137.0597
Precursor m/z: 137.0597
Precursor type: [M-H2O+H]+
m/z	relative intensity
94.0431	1
119.0444	1
121.0224	4
121.9545	1
122.0339	601
123.0367	55
124.0369	1
135.0457	13
136.9452	2
137.0579	999
138.0603	78
