Mass spectrum: Kaempferol 3-glucoside; LC-ESI-QFT; MS2; CE: NCE_15_30_74;  [M-H]-
Name: Kaempferol 3-glucoside
Class: NA
Formula: C21H20O11
Exact mass: 448.1006
SMILES: C1=CC(=CC=C1C2=C(C(=O)C3=C(C=C(C=C3O2)O)O)OC4C(C(C(C(O4)CO)O)O)O)O
InChI: InChI=1S/C21H20O11/c22-7-13-15(26)17(28)18(29)21(31-13)32-20-16(27)14-11(25)5-10(24)6-12(14)30-19(20)8-1-3-9(23)4-2-8/h1-6,13,15,17-18,21-26,28-29H,7H2
Instrument: Thermo_Qexactive_Plus
Instrument type: LC-ESI-QFT
Ms type: MS2
Ion mode: NEGATIVE
Ionization: ESI
Collision energy: NCE_15_30_74
Column name: Acquity CSHC18
Retention time: 5.025 min
Base peak: 447.0937
Precursor m/z: 447.0937
Precursor type: [M-H]-
Precursor intensity: 653576000
m/z	relative intensity
64.564	5
81.6869	5
81.8229	5
90.7836	5
97.1273	5
107.0269	5
108.9028	6
125.023	6
141.3759	6
151.0035	6
153.0187	7
163.0021	7
169.0132	7
174.0314	8
175.0396	9
175.3729	9
178.9979	9
185.0604	10
187.0402	10
192.3148	10
219.0449	10
227.0367	12
228.038	13
229.0506	13
241.0501	16
255.0327	26
256.036	32
257.0446	43
269.0438	47
284.033	78
285.0415	91
286.0433	196
299.0581	422
327.0519	901
447.0934	999
