Mass spectrum: PHOSPHOCREATINE; LC-ESI-QTOF; MS2; CE: 20;  [M+H]+
Name: PHOSPHOCREATINE
Class: NA
Formula: C4H10N3O5P
Exact mass: 211.03581
SMILES: CN(CC(O)=O)C(=N)NP(O)(O)=O
InChI: InChI=1S/C4H10N3O5P/c1-7(2-3(8)9)4(5)6-13(10,11)12/h2H2,1H3,(H,8,9)(H4,5,6,10,11,12)
Instrument: Agilent 6530Â Q-TOF LC/MS
Instrument type: LC-ESI-QTOF
Ms type: MS2
Ion mode: POSITIVE
Ionization: ESI
Collision energy: 20
Column name: NA
Retention time: 0.200 min
Base peak: 212.04608
Precursor m/z: 212.04608
Precursor type: [M+H]+
Precursor intensity: 40.5
m/z	relative intensity
44.0418	534
44.0456	953
44.0494	999
44.0532	833
44.057	651
44.0608	509
44.0646	394
44.0684	325
44.0722	248
44.076	193
45.0285	209
45.0323	276
45.0362	250
45.04	180
74.0856	180
74.0905	265
74.0954	258
74.1004	204
90.0523	190
90.0577	162
92.0428	158
92.0483	180
92.0538	171
105.329	198
105.3348	169
114.0546	173
123.9747	206
123.9811	220
123.9875	220
123.9939	179
