Mass spectrum: Tetrachlorobisphenol A; LC-ESI-ITFT; MS2; CE: 20;  [M-H]-
Name: Tetrachlorobisphenol A
Class: NA
Formula: C15H12Cl4O2
Exact mass: 363.95914
SMILES: CC(C)(C1=CC(=C(C(=C1)Cl)O)Cl)C2=CC(=C(C(=C2)Cl)O)Cl
InChI: InChI=1S/C15H12Cl4O2/c1-15(2,7-3-9(16)13(20)10(17)4-7)8-5-11(18)14(21)12(19)6-8/h3-6,20-21H,1-2H3
Instrument: Thermo Scientific Q-Exactive Focus
Instrument type: LC-ESI-ITFT
Ms type: MS2
Ion mode: NEGATIVE
Ionization: ESI
Collision energy: 20
Column name: Acquity CSHC18
Retention time: 0.642 min
Base peak: 362.95187
Precursor m/z: 362.95187
Precursor type: [M-H]-
m/z	relative intensity
158.9775	12
200.9871	46
251.9748	15
286.9439	8
298.9434	7
299.9514	6
311.9516	41
347.928	24
362.9411	69
362.9516	999
