Mass spectrum: Aminocaproic acid; ESI-TOF; MS2; CE: 6.0000000;  [M+H]+
Name: Aminocaproic acid
Class: NA
Formula: C6H13NO2
Exact mass: 131.09463
SMILES: NCCCCCC(O)=O
InChI: InChI=1S/C6H13NO2/c7-5-3-1-2-4-6(8)9/h1-5,7H2,(H,8,9)
Instrument: waters xevo g2 TOF
Instrument type: ESI-TOF
Ms type: MS2
Ion mode: POSITIVE
Ionization: ESI
Collision energy: 6.0000000
Column name: Acquity CSHC18
Retention time: 0.559 min
Base peak: 132.10263
Precursor m/z: 132.10263
Precursor type: [M+H]+
m/z	relative intensity
69.0709	17
73.0657	1
79.0551	24
80.0585	1
84.0813	1
96.0817	51
97.0656	18
98.0642	1
98.9628	3
102.0469	5
106.9934	1
111.9681	1
114.0283	449
115.0885	39
115.9645	1
117.9801	2
130.0838	2
132.1024	999
133.1014	71
