Mass spectrum: Isositsirikine; ESI-QTOF; MS2; CE: 30 eV;  [M+H]+
Name: Isositsirikine
Class: NA
Formula: C21H26N2O3
Exact mass: 354.1943
SMILES: CC(=C1CN2CCC=3C4=CC=CC=C4NC3C2(CC1(C(CO)(C(=O)OC)[H])[H])[H])[H]
InChI: InChI=1S/C21H26N2O3/c1-3-13-11-23-9-8-15-14-6-4-5-7-18(14)22-20(15)19(23)10-16(13)17(12-24)21(25)26-2/h3-7,16-17,19,22,24H,8-12H2,1-2H3
Instrument: Synapt (HDMS 1st gen)
Instrument type: ESI-QTOF
Ms type: MS2
Ion mode: POSITIVE
Ionization: ESI
Collision energy: 30 eV
Column name: Acquity CSHC18
Retention time: 10.775 min
Base peak: 355.2068
Precursor m/z: 355.2068
Precursor type: [M+H]+
Precursor intensity: 2526.91
m/z	relative intensity
144.0819	73
224.1342	42
338.1855	59
355.2002	999
