Mass spectrum: 3-Hydroxybutyric acid; LC-ESI-ITFT; MS2; CE: 10;  [M-H]-
Name: 3-Hydroxybutyric acid
Class: Organic acids and derivatives; Hydroxy acids and derivatives; Beta hydroxy acids and derivatives
Formula: C4H8O3
Exact mass: 104.04734
SMILES: CC(O)CC(O)=O
InChI: InChI=1S/C4H8O3/c1-3(5)2-4(6)7/h3,5H,2H2,1H3,(H,6,7)
Instrument: Thermo Scientific Q-Exactive Focus
Instrument type: LC-ESI-ITFT
Ms type: MS2
Ion mode: NEGATIVE
Ionization: ESI
Collision energy: 10
Column name: Acquity CSHC18
Retention time: 0.364 min
Base peak: 103.04007
Precursor m/z: 103.04007
Precursor type: [M-H]-
m/z	relative intensity
53.1113	1
57.0334	78
59.0127	999
62.0458	2
69.2484	1
72.3336	1
97.0337	1
101.9419	1
102.395	1
103.0388	261
