Mass spectrum: N-ACETYLTRYPTOPHAN; LC-ESI-QTOF; MS2; CE: 10;  [M-H]-
Name: N-ACETYLTRYPTOPHAN
Class: NA
Formula: C13H14N2O3
Exact mass: 246.10044
SMILES: CC(=O)N[C@@H](CC1=CNC2=C1C=CC=C2)C(O)=O
InChI: InChI=1S/C13H14N2O3/c1-8(16)15-12(13(17)18)6-9-7-14-11-5-3-2-4-10(9)11/h2-5,7,12,14H,6H2,1H3,(H,15,16)(H,17,18)/t12-/m0/s1
Instrument: Agilent 6530Â Q-TOF LC/MS
Instrument type: LC-ESI-QTOF
Ms type: MS2
Ion mode: NEGATIVE
Ionization: ESI
Collision energy: 10
Column name: NA
Retention time: 0.200 min
Base peak: 245.09912
Precursor m/z: 245.09912
Precursor type: [M-H]-
Precursor intensity: 194
m/z	relative intensity
41.9989	152
58.038	184
72.0496	206
74.0394	259
98.031	320
116.0575	350
142.0677	652
201.1113	871
203.1046	984
245.1198	999
