Mass spectrum: HISTIDINE; LC-ESI-QTOF; MS2; CE: 20;  [M-H]-
Name: HISTIDINE
Class: NA
Formula: C6H9N3O2
Exact mass: 155.06948
SMILES: N[C@@H](CC1=CNC=N1)C(O)=O
InChI: InChI=1S/C6H9N3O2/c7-5(6(10)11)1-4-2-8-3-9-4/h2-3,5H,1,7H2,(H,8,9)(H,10,11)/t5-/m0/s1
Instrument: Agilent 6530Â Q-TOF LC/MS
Instrument type: LC-ESI-QTOF
Ms type: MS2
Ion mode: NEGATIVE
Ionization: ESI
Collision energy: 20
Column name: NA
Retention time: 0.200 min
Base peak: 154.06265
Precursor m/z: 154.06265
Precursor type: [M-H]-
Precursor intensity: 123
m/z	relative intensity
40.0249	104
45.0012	129
65.0128	142
66.0363	145
67.042	152
72.0116	192
80.049	207
81.0474	226
93.0653	235
94.0443	247
108.0549	264
110.0791	392
137.0404	485
154.0627	999
