Mass spectrum: N-(3-INDOLylacetyl)-L-isoleucine; LC-ESI-QTOF; MS2; CE: -10, -35, -60V;  [M-H]-
Name: N-(3-INDOLylacetyl)-L-isoleucine
Class: NA
Formula: C16H20N2O3
Exact mass: 288.1474
SMILES: CCC(C)C(C(=O)O)NC(=O)CC1=CNC2=CC=CC=C21
InChI: InChI=1S/C16H20N2O3/c1-3-10(2)15(16(20)21)18-14(19)8-11-9-17-13-7-5-4-6-12(11)13/h4-7,9-10,15,17H,3,8H2,1-2H3,(H,18,19)(H,20,21)
Instrument: TripleToF 5600; Sciex
Instrument type: LC-ESI-QTOF
Ms type: MS2
Ion mode: NEGATIVE
Ionization: ESI
Collision energy: -10, -35, -60V
Column name: Acquity CSHC18
Retention time: 15.495 min
Base peak: 287.1410
Precursor m/z: 287.1410
Precursor type: [M-H]-
Precursor intensity: 2266881
m/z	relative intensity
116.0439	7
116.0515	30
128.0508	145
130.0877	999
130.9877	23
131.0895	17
146.0625	9
156.0342	6
156.0465	170
243.1508	61
287.1435	246
