Mass spectrum: 8-Epi-Xanthatine; LC-ESI-ITFT; MS2; CE: 50eV;  [M+H]+
Name: 8-Epi-Xanthatine
Class: Sesquiterpenelactone; Xanthanolide
Formula: C15H18O3
Exact mass: 246.1256
SMILES: CC1CC2C(CC=C1C=CC(=O)C)C(=C)C(=O)O2
InChI: InChI=1S/C15H18O3/c1-9-8-14-13(11(3)15(17)18-14)7-6-12(9)5-4-10(2)16/h4-6,9,13-14H,3,7-8H2,1-2H3
Instrument: Q Exactive Plus, ThermoFisher Scientific
Instrument type: LC-ESI-ITFT
Ms type: MS2
Ion mode: POSITIVE
Ionization: ESI
Collision energy: 50eV
Column name: Acquity CSHC18
Retention time: 8.459 min
Base peak: 247.1327
Precursor m/z: 247.1327
Precursor type: [M+H]+
Precursor intensity: 545489300
m/z	relative intensity
50.7514	61
53.6172	56
56.0778	61
69.5995	452
71.0498	87
73.2418	66
91.2509	56
93.0709	72
95.0495	267
105.0699	75
109.0651	140
117.0707	108
119.0859	265
131.0848	339
133.102	103
143.0861	413
145.0642	111
145.1007	91
149.0971	73
155.0855	74
157.1017	258
159.0812	292
159.1174	387
165.0926	74
169.1015	77
169.859	64
175.1116	142
183.1166	593
187.1106	405
189.0925	134
189.4333	72
201.1278	492
211.1111	134
229.123	503
247.132	999
