Mass spectrum: Tryptamine; LC-ESI-ITFT; MS2; CE: 60;  [M+H]+
Name: Tryptamine
Class: Organoheterocyclic compounds; Indoles and derivatives; Tryptamines and derivatives
Formula: C10H12N2
Exact mass: 160.10005
SMILES: NCCC1=CNC2=CC=CC=C12
InChI: InChI=1S/C10H12N2/c11-6-5-8-7-12-10-4-2-1-3-9(8)10/h1-4,7,12H,5-6,11H2
Instrument: Thermo Scientific Q-Exactive Focus
Instrument type: LC-ESI-ITFT
Ms type: MS2
Ion mode: POSITIVE
Ionization: ESI
Collision energy: 60
Column name: Acquity CSHC18
Retention time: NA
Base peak: 161.10732
Precursor m/z: 161.10732
Precursor type: [M+H]+
m/z	relative intensity
51.0235	139
63.0234	219
65.0391	404
75.0233	94
89.0389	999
90.0467	233
91.0545	318
95.0494	92
115.0544	644
117.0574	93
