Mass spectrum: N-Glycolylneuraminic acid; LC-ESI-QTOF; MS2; CE: 100;  [M-H]-
Name: N-Glycolylneuraminic acid
Class: Neuraminic acids
Formula: C11H19NO10
Exact mass: 325.10090
SMILES: OC[C@@H](O)[C@@H](O)[C@@H]1O[C@@](O)(C[C@H](O)[C@H]1NC(=O)CO)C(O)=O
InChI: InChI=1S/C11H19NO10/c13-2-5(16)8(18)9-7(12-6(17)3-14)4(15)1-11(21,22-9)10(19)20/h4-5,7-9,13-16,18,21H,1-3H2,(H,12,17)(H,19,20)/t4-,5+,7+,8+,9+,11-/m0/s1
Instrument: impact II
Instrument type: LC-ESI-QTOF
Ms type: MS2
Ion mode: NEGATIVE
Ionization: ESI
Collision energy: 100
Column name: Acquity CSHC18
Retention time: 1.676 min
Base peak: 324.09400
Precursor m/z: 324.09400
Precursor type: [M-H]-
m/z	relative intensity
50.0038	695
52.0195	979
54.0349	281
55.0191	104
56.0507	167
57.0343	118
58.006	134
58.0299	221
59.0139	999
66.0349	139
68.0144	153
