Mass spectrum: 6-Hydroxy-1H-indole-3-carboxylic acid; LC-ESI-QTOF; MS2; CE: 15.00;  [M-H]-
Name: 6-Hydroxy-1H-indole-3-carboxylic acid
Class: NA
Formula: C9H7NO3
Exact mass: 177.0426
SMILES: C1=CC2=C(C=C1O)NC=C2C(=O)O
InChI: InChI=1S/C9H7NO3/c11-5-1-2-6-7(9(12)13)4-10-8(6)3-5/h1-4,10-11H,(H,12,13)
Instrument: Bruker MicrOTOF-Q
Instrument type: LC-ESI-QTOF
Ms type: MS2
Ion mode: NEGATIVE
Ionization: ESI
Collision energy: 15.00
Column name: Acquity CSHC18
Retention time: NA
Base peak: 176.0353
Precursor m/z: 176.0353
Precursor type: [M-H]-
m/z	relative intensity
131.04	471
132.05	999
