Mass spectrum: Pyrocatechol; LC-ESI-ITFT; MS2; CE: 40;  [M-H]-
Name: Pyrocatechol
Class: Benzenoids; Phenols; Benzenediols
Formula: C6H6O2
Exact mass: 110.03678
SMILES: OC1=CC=CC=C1O
InChI: InChI=1S/C6H6O2/c7-5-3-1-2-4-6(5)8/h1-4,7-8H
Instrument: Thermo Scientific Q-Exactive Focus
Instrument type: LC-ESI-ITFT
Ms type: MS2
Ion mode: NEGATIVE
Ionization: ESI
Collision energy: 40
Column name: Acquity CSHC18
Retention time: 1.475 min
Base peak: 109.02950
Precursor m/z: 109.02950
Precursor type: [M-H]-
m/z	relative intensity
65.002	999
67.0325	122
67.1425	102
69.7157	106
76.1081	110
82.6655	103
82.8694	112
91.0179	118
108.0205	792
110.2366	114
