Mass spectrum: L-Cystine; LC-ESI-ITFT; MS2; CE: 10;  [M+H]+
Name: L-Cystine
Class: Organic acids and derivatives; Carboxylic acids and derivatives; Amino acids, peptides, and analogues
Formula: C6H12N2O4S2
Exact mass: 240.02385
SMILES: N[C@@H](CSSC[C@H](N)C(O)=O)C(O)=O
InChI: InChI=1S/C6H12N2O4S2/c7-3(5(9)10)1-13-14-2-4(8)6(11)12/h3-4H,1-2,7-8H2,(H,9,10)(H,11,12)/t3-,4-/m0/s1
Instrument: Thermo Scientific Q-Exactive Focus
Instrument type: LC-ESI-ITFT
Ms type: MS2
Ion mode: POSITIVE
Ionization: ESI
Collision energy: 10
Column name: Acquity CSHC18
Retention time: 0.348 min
Base peak: 241.03111
Precursor m/z: 241.03111
Precursor type: [M+H]+
m/z	relative intensity
74.0064	16
74.0241	61
120.0116	278
122.0272	220
151.9836	999
153.9991	102
177.9991	50
195.0257	156
224.0045	18
241.0311	689
