Mass spectrum: myo-Inositol; LC-ESI-ITFT; MS2; CE: 100;  [M-H]-
Name: myo-Inositol
Class: Organic oxygen compounds; Organooxygen compounds; Alcohols and polyols
Formula: C6H12O6
Exact mass: 180.06339
SMILES: O[C@H]1[C@H](O)[C@@H](O)[C@H](O)[C@H](O)[C@@H]1O
InChI: InChI=1S/C6H12O6/c7-1-2(8)4(10)6(12)5(11)3(1)9/h1-12H/t1-,2-,3-,4+,5-,6-
Instrument: Thermo Scientific Q-Exactive Focus
Instrument type: LC-ESI-ITFT
Ms type: MS2
Ion mode: NEGATIVE
Ionization: ESI
Collision energy: 100
Column name: Acquity CSHC18
Retention time: 2.317 min
Base peak: 179.05611
Precursor m/z: 179.05611
Precursor type: [M-H]-
m/z	relative intensity
64.9709	887
77.8659	901
92.8538	874
94.9919	950
102.9338	879
105.0507	872
126.1537	924
133.1023	914
133.875	873
149.2851	999
