Mass spectrum: Acanthospermolid, 8-ß-angeloyloxy-9ß-hydroxy-14-oxo; LC-ESI-ITFT; MS2; CE: 50eV;  [M+H]+
Name: Acanthospermolid, 8-ß-angeloyloxy-9ß-hydroxy-14-oxo
Class: Sesquiterpenelactone; Melampolide
Formula: C20H24O6
Exact mass: 360.1573
SMILES: C\C=C(\C)C(=O)O[C@@H]1[C@@H](O)C(=CCCC(C)=C[C@H]2OC(=O)C(=C)[C@H]12)C=O
InChI: InChI=1S/C20H24O6/c1-5-12(3)19(23)26-18-16-13(4)20(24)25-15(16)9-11(2)7-6-8-14(10-21)17(18)22/h5,8-10,15-18,22H,4,6-7H2,1-3H3/b11-9?,12-5-,14-8?/t15-,16+,17+,18+/m1/s1
Instrument: Q Exactive Plus, ThermoFisher Scientific
Instrument type: LC-ESI-ITFT
Ms type: MS2
Ion mode: POSITIVE
Ionization: ESI
Collision energy: 50eV
Column name: Acquity CSHC18
Retention time: 6.784 min
Base peak: 361.1643
Precursor m/z: 361.1643
Precursor type: [M+H]+
Precursor intensity: 1573682000
m/z	relative intensity
55.055	79
62.8277	33
68.8627	202
78.257	33
83.0496	999
97.4353	42
102.0568	30
121.2331	29
140.7095	29
169.1018	171
173.0597	43
177.0909	176
187.1104	74
197.0961	277
215.1052	446
225.0895	122
243.1008	669
261.1126	265
361.1614	123
