Mass spectrum: Paniculogenin; APCI-ITFT; MS2; CE: CID 35;  [M-H]-
Name: Paniculogenin
Class: NA
Formula: C27H44O5
Exact mass: 448.31887
SMILES: CC1CC(C2(C(C3C(O2)CC4C3(CCC5C4CC(C6C5(CCC(C6)O)C)O)C)C)OC1)O
InChI: InChI=1S/C27H44O5/c1-14-9-23(30)27(31-13-14)15(2)24-22(32-27)12-19-17-11-21(29)20-10-16(28)5-7-25(20,3)18(17)6-8-26(19,24)4/h14-24,28-30H,5-13H2,1-4H3
Instrument: Orbitrap Elite
Instrument type: APCI-ITFT
Ms type: MS2
Ion mode: NEGATIVE
Ionization: APCI
Collision energy: CID 35
Column name: Acquity CSHC18
Retention time: 0.133 min
Base peak: 447.31240
Precursor m/z: 447.31240
Precursor type: [M-H]-
Precursor intensity: 2228539
m/z	relative intensity
349.2396	26
377.2709	35
383.2977	39
385.2785	24
385.3146	26
387.2516	35
389.2332	211
399.292	132
401.3064	32
403.3225	999
404.3221	52
411.2484	22
411.295	18
429.3034	337
