Mass spectrum: L-Asparagine; LC-ESI-ITFT; MS2; CE: 100;  [M+H]+
Name: L-Asparagine
Class: Organic acids and derivatives; Carboxylic acids and derivatives; Amino acids, peptides, and analogues
Formula: C4H8N2O3
Exact mass: 132.05349
SMILES: N[C@@H](CC(N)=O)C(O)=O
InChI: InChI=1S/C4H8N2O3/c5-2(4(8)9)1-3(6)7/h2H,1,5H2,(H2,6,7)(H,8,9)/t2-/m0/s1
Instrument: Thermo Scientific Q-Exactive Focus
Instrument type: LC-ESI-ITFT
Ms type: MS2
Ion mode: POSITIVE
Ionization: ESI
Collision energy: 100
Column name: Acquity CSHC18
Retention time: 2.570 min
Base peak: 133.06078
Precursor m/z: 133.06078
Precursor type: [M+H]+
m/z	relative intensity
53.4432	805
71.3749	774
74.724	788
90.7405	805
111.5003	773
115.9193	828
120.8129	841
127.2088	999
146.3838	869
153.8598	788
