Mass spectrum: Afzelin; LC-ESI-QFT; MS2; CE: 15,30,45 (NCE);  [M+FA-H]-
Name: Afzelin
Class: NA
Formula: C21H20O10
Exact mass: 432.1056
SMILES: CC1OC(OC2=C(OC3=CC(O)=CC(O)=C3C2=O)C2=CC=C(O)C=C2)C(O)C(O)C1O
InChI: InChI=1S/C21H20O10/c1-8-15(25)17(27)18(28)21(29-8)31-20-16(26)14-12(24)6-11(23)7-13(14)30-19(20)9-2-4-10(22)5-3-9/h2-8,15,17-18,21-25,27-28H,1H3
Instrument: QE Focus, Thermo Scientfic; UPLC I-Class, Waters
Instrument type: LC-ESI-QFT
Ms type: MS2
Ion mode: NEGATIVE
Ionization: ESI
Collision energy: 15,30,45 (NCE)
Column name: Acquity CSHC18
Retention time: 1.823 min
Base peak: 477.1039
Precursor m/z: 477.1039
Precursor type: [M+FA-H]-
Precursor intensity: 32614100
m/z	relative intensity
71.1342	41
151.0029	95
199.0395	55
213.0558	193
227.0346	999
241.0502	143
267.0298	147
