Mass spectrum: ampicillin; LC-ESI-QTOF; MS2; CE: -10, -35, -60V;  [M-H]-
Name: ampicillin
Class: NA
Formula: C16H19N3O4S
Exact mass: 349.1096
SMILES: CC1(C(N2C(S1)C(C2=O)NC(=O)C(C3=CC=CC=C3)N)C(=O)O)C
InChI: InChI=1S/C16H19N3O4S/c1-16(2)11(15(22)23)19-13(21)10(14(19)24-16)18-12(20)9(17)8-6-4-3-5-7-8/h3-7,9-11,14H,17H2,1-2H3,(H,18,20)(H,22,23)
Instrument: TripleToF 5600; Sciex
Instrument type: LC-ESI-QTOF
Ms type: MS2
Ion mode: NEGATIVE
Ionization: ESI
Collision energy: -10, -35, -60V
Column name: Acquity CSHC18
Retention time: 11.557 min
Base peak: 348.1057
Precursor m/z: 348.1057
Precursor type: [M-H]-
Precursor intensity: 48210.5
m/z	relative intensity
71.9863	13
72.9995	9
74.0064	139
83.991	4
171.0588	5
173.0716	30
189.0536	3
206.3939	7
207.0616	999
208.0642	192
209.0571	76
270.1256	5
304.1169	206
305.1123	35
307.1128	2
348.1034	395
