Mass spectrum: hypoxanthine; LC-ESI-QTOF; MS2; CE: 35.00;  [M+H]+
Name: hypoxanthine
Class: NA
Formula: C5H4N4O
Exact mass: 136.0385
SMILES: C1=NC2=C(N1)C(=O)N=CN2
InChI: InChI=1S/C5H4N4O/c10-5-3-4(7-1-6-3)8-2-9-5/h1-2H,(H2,6,7,8,9,10)
Instrument: Bruker MicrOTOF-Q
Instrument type: LC-ESI-QTOF
Ms type: MS2
Ion mode: POSITIVE
Ionization: ESI
Collision energy: 35.00
Column name: Acquity CSHC18
Retention time: NA
Base peak: 137.0451
Precursor m/z: 137.0451
Precursor type: [M+H]+
m/z	relative intensity
119.036	999
137.0493	257
