Mass spectrum: CYTIDINE 2',3'-CYCLIC PHOSPHATE; LC-ESI-QFT; MS2; CE: 30eV;  [M-H]-
Name: CYTIDINE 2',3'-CYCLIC PHOSPHATE
Class: NA
Formula: C9H12N3O7P
Exact mass: 305.04129
SMILES: NC1=NC(=O)N(C=C1)C1O[C@H](CO)[C@H]2OP(O)(=O)O[C@@H]12
InChI: InChI=1S/C9H12N3O7P/c10-5-1-2-12(9(14)11-5)8-7-6(4(3-13)17-8)18-20(15,16)19-7/h1-2,4,6-8,13H,3H2,(H,15,16)(H2,10,11,14)/t4-,6-,7-,8?/m1/s1
Instrument: Q-Exactive Orbitrap, Thermo Scientfic; Ultimate 3000 HPLC, Thermo Scientfic
Instrument type: LC-ESI-QFT
Ms type: MS2
Ion mode: NEGATIVE
Ionization: ESI
Collision energy: 30eV
Column name: Acquity CSHC18
Retention time: 0.600 min
Base peak: 304.0340
Precursor m/z: 304.0340
Precursor type: [M-H]-
Precursor intensity: 113
m/z	relative intensity
50.8271	14
51.1304	13
52.8015	15
52.8528	16
53.2598	13
55.6786	15
62.0321	14
62.5182	14
64.7683	15
67.0269	35
67.0286	999
78.9574	170
81.2744	17
87.9237	19
96.9681	158
96.9706	18
108.0074	17
111.0319	169
111.0377	873
117.9343	108
118.9423	25
129.9347	21
145.1856	16
161.788	19
172.8983	24
176.0458	20
178.873	22
192.9897	502
203.678	18
216.8884	189
234.4665	17
260.8821	20
304.0344	206
