Mass spectrum: 8-deoxylactucin; ESI-QTOF; MS2; CE: 25V ± 15V CES;  [M+H]+
Name: 8-deoxylactucin
Class: Sesquiterpene lactone
Formula: C15H16O4
Exact mass: 260.1049
SMILES: CC1=C2C(C3C(CC1)C(=C)C(=O)O3)C(=CC2=O)CO
InChI: InChI=1S/C15H16O4/c1-7-3-4-10-8(2)15(18)19-14(10)13-9(6-16)5-11(17)12(7)13/h5,10,13-14,16H,2-4,6H2,1H3
Instrument: TripleToF 5600, Sciex
Instrument type: ESI-QTOF
Ms type: MS2
Ion mode: POSITIVE
Ionization: ESI
Collision energy: 25V ± 15V CES
Column name: Acquity CSHC18
Retention time: 6.015 min
Base peak: 261.1132
Precursor m/z: 261.1132
Precursor type: [M+H]+
Precursor intensity: 228190.8
m/z	relative intensity
133.0803	141
145.0838	147
149.0705	161
157.0822	192
159.0838	201
173.0791	219
177.0755	297
178.0876	364
181.0852	391
189.0723	620
198.0852	835
201.0754	857
217.0971	999
