Mass spectrum: Adipic acid; LC-ESI-QTOF; MS2; CE: 15 / 50;  [M-H]-
Name: Adipic acid
Class: NA
Formula: C6H10O4
Exact mass: 146.0579
SMILES: C(CCC(=O)O)CC(=O)O
InChI: InChI=1S/C6H10O4/c7-5(8)3-1-2-4-6(9)10/h1-4H2,(H,7,8)(H,9,10)
Instrument: impact II
Instrument type: LC-ESI-QTOF
Ms type: MS2
Ion mode: NEGATIVE
Ionization: ESI
Collision energy: 15 / 50
Column name: Acquity CSHC18
Retention time: 0.658 min
Base peak: 145.0508
Precursor m/z: 145.0508
Precursor type: [M-H]-
m/z	relative intensity
81.0344	301
83.05	700
101.0609	999
127.0402	103
145.0509	287
