Mass spectrum: S4:16(2,4,5,5); LC-ESI-QTOF; MS2; CE: -10,-35,-60V;  [M+FA-H]-
Name: S4:16(2,4,5,5)
Class: acyl sugar
Formula: C28H46O15
Exact mass: 622.2837
SMILES: CC(C)CC(O[C@@H]([C@@H](O[C@H]([C@H]2OC(C)=O)O[C@@]1(CO)O[C@H]([C@@H]([C@H]1OC(CC(C)C)=O)O)CO)CO)[C@H]2OC(C(C)C)=O)=O
InChI: InChI=1S/C28H46O15/c1-13(2)8-19(33)39-22-18(11-30)38-27(24(37-16(7)32)23(22)41-26(36)15(5)6)43-28(12-31)25(21(35)17(10-29)42-28)40-20(34)9-14(3)4/h13-15,17-18,21-25,27,29-31,35H,8-12H2,1-7H3/t17-,18-,21-,22-,23+,24-,25+,27-,28+/m0/s1
Instrument: TripleToF5600, Sciex; Acquity, Waters
Instrument type: LC-ESI-QTOF
Ms type: MS2
Ion mode: NEGATIVE
Ionization: ESI
Collision energy: -10,-35,-60V
Column name: Acquity CSHC18
Retention time: 10.586 min
Base peak: 667.2789
Precursor m/z: 667.2789
Precursor type: [M+FA-H]-
Precursor intensity: 8027651
m/z	relative intensity
71.017	13
81.0375	1
83.0154	10
87.0085	152
87.0453	152
89.0242	9
101.0237	246
101.0606	246
102.0621	19
113.0223	20
115.0787	9
141.089	1
159.0743	1
161.0496	4
183.0668	1
245.1007	6
305.0884	13
323.0979	20
393.1387	31
394.1443	6
407.1591	34
408.1653	1
425.169	31
453.155	5
467.2124	8
477.1914	33
492.2308	3
495.2139	300
496.2134	97
497.2076	18
534.2235	1
537.2263	244
538.2313	82
539.2111	19
552.2838	6
561.2577	2
579.2321	309
579.2728	309
580.2722	117
581.2792	25
582.2803	4
621.2625	155
621.2906	155
622.2869	55
623.2839	11
664.2773	37
665.1799	83
665.2455	114
665.2819	80
666.1415	19
666.2325	36
666.3018	23
667.1511	12
667.2752	999
667.2933	998
669.2933	363
