Mass spectrum: Adipic acid; ESI-TOF; MS2; CE: 0.6458333;  [M+H]+
Name: Adipic acid
Class: NA
Formula: C6H10O4
Exact mass: 146.05791
SMILES: OC(=O)CCCCC(O)=O
InChI: InChI=1S/C6H10O4/c7-5(8)3-1-2-4-6(9)10/h1-4H2,(H,7,8)(H,9,10)
Instrument: waters xevo g2 TOF
Instrument type: ESI-TOF
Ms type: MS2
Ion mode: POSITIVE
Ionization: ESI
Collision energy: 0.6458333
Column name: Acquity CSHC18
Retention time: 1.680 min
Base peak: 147.06591
Precursor m/z: 147.06591
Precursor type: [M+H]+
m/z	relative intensity
83.0498	44
101.0603	2
109.9822	49
111.0449	33
112.0488	2
115.0234	2
120.9969	95
123.0123	276
127.9918	64
129.0547	2
137.9881	232
138.9846	194
139.9917	66
141.0217	55
143.0709	2
155.9877	211
157.0135	212
158.0026	49
163.9787	2
166.0238	10
167.0025	653
168.005	60
169.0478	57
170.0264	24
174.9919	71
185.0128	999
186.0141	56
191.0294	2
199.9778	77
200.9847	140
202.9844	117
208.9903	147
211.0193	133
213.9926	18
217.0365	2
217.9879	102
220.0203	110
222.0346	61
223.0421	106
226.0343	52
230.0097	2
232.0035	2
233.0063	2
237.0682	41
238.0287	270
240.0425	69
242.0111	2
244.0074	18
246.0158	2
266.0241	105
267.0306	47
272.0364	110
284.0345	140
285.0392	2
315.0924	2
317.0821	2
328.0273	2
329.0319	2
331.0694	147
332.0751	2
333.0748	2
335.0637	2
344.0396	2
346.0352	2
347.0407	2
348.0431	2
349.0448	2
350.0465	2
351.0398	2
353.0468	12
383.9831	69
477.1315	2
530.0406	2
545.0071	2
546.0057	2
