Mass spectrum: Myricetin-3-O-(6''-O-galloyl)-β-D-galactopyranoside; LC-ESI-ITFT; MS2; CE: 0.3;  [M-H]-
Name: Myricetin-3-O-(6''-O-galloyl)-β-D-galactopyranoside
Class: flavonol glycosides
Formula: C28H24O17
Exact mass: 632.1013
SMILES: C1=C(C=C(C(=C1O)O)O)C2=C(C(=O)C3=C(C=C(C=C3O2)O)O)OC4C(C(C(C(O4)COC(=O)C5=CC(=C(C(=C5)O)O)O)O)O)O
InChI: InChI=1S/C28H24O17/c29-10-5-11(30)18-16(6-10)43-25(8-1-12(31)19(35)13(32)2-8)26(22(18)38)45-28-24(40)23(39)21(37)17(44-28)7-42-27(41)9-3-14(33)20(36)15(34)4-9/h1-6,17,21,23-24,28-37,39-40H,7H2
Instrument: LTQ-Orbitrap XL hybrid mass spectrometer (Thermo Scientific)
Instrument type: LC-ESI-ITFT
Ms type: MS2
Ion mode: NEGATIVE
Ionization: ESI
Collision energy: 0.3
Column name: Acquity CSHC18
Retention time: 4.275 min
Base peak: 631.0922
Precursor m/z: 631.0922
Precursor type: [M-H]-
Precursor intensity: 14675460
m/z	relative intensity
162.1941	1
163.5055	1
167.0952	2
171.937	1
172.8058	1
178.9969	1
183.4466	1
184.4083	1
187.3548	1
192.7302	1
212.4037	1
221.3491	1
225.2318	1
226.6374	1
227.0352	2
228.7599	1
249.2791	1
262.7958	1
263.2903	1
271.0366	9
272.8113	1
274.5861	1
299.0189	38
300.0215	2
300.5447	1
301.0345	10
305.5282	1
310.5337	1
313.0573	3
316.0214	37
317.0294	59
318.032	2
319.4586	1
321.1315	1
322.83	1
329.5358	1
331.238	1
332.5128	1
349.7953	1
352.0678	1
352.1271	1
356.6233	1
356.9208	1
358.7758	1
359.042	2
362.4323	1
365.4499	1
371.696	1
374.0599	2
375.5271	1
376.9026	1
380.8788	1
381.3558	1
386.2959	1
388.5793	1
390.9633	1
391.1435	1
391.4579	1
391.8612	1
392.3321	1
392.7069	2
393.9754	2
394.2897	1
395.5349	1
397.3312	2
398.4069	1
399.5147	1
399.5547	1
400.0288	2
401.7016	1
402.6207	2
405.0611	2
405.1532	1
406.18	1
407.6797	1
408.4767	1
436.1999	2
454.2191	2
455.992	1
463.6643	1
464.3114	2
474.5553	4
476.053	2
478.5558	2
478.5784	1
478.6211	3
478.6819	2
478.7111	2
478.7432	2
478.778	4
478.8054	3
478.841	4
478.87	4
478.9015	4
478.9331	5
478.9663	6
479.0819	999
479.1877	3
479.2197	6
479.2504	5
479.2827	5
479.3097	3
479.3477	4
479.4114	4
479.4397	3
479.469	2
479.5048	2
479.5331	2
479.5695	2
479.5968	1
480.0858	70
482.1338	2
483.6719	4
504.253	2
508.853	2
511.9636	2
518.2262	1
523.9282	1
533.4992	1
541.042	2
541.4758	1
553.4107	2
563.4466	2
576.574	2
577.2221	2
584.3836	1
584.5306	2
586.5795	1
589.2135	1
589.7098	2
590.695	2
593.9226	2
595.662	2
596.4483	1
598.1798	2
599.6139	2
611.4136	2
611.867	2
613.6075	1
615.6218	2
618.9249	2
624.3712	1
625.0954	2
625.7539	1
625.9769	1
626.0608	1
627.7734	2
