Mass spectrum: L-Asparagine; LC-ESI-ITFT; MS2; CE: 40;  [M+H]+
Name: L-Asparagine
Class: Organic acids and derivatives; Carboxylic acids and derivatives; Amino acids, peptides, and analogues
Formula: C4H8N2O3
Exact mass: 132.05349
SMILES: N[C@@H](CC(N)=O)C(O)=O
InChI: InChI=1S/C4H8N2O3/c5-2(4(8)9)1-3(6)7/h2H,1,5H2,(H2,6,7)(H,8,9)/t2-/m0/s1
Instrument: Thermo Scientific Q-Exactive Focus
Instrument type: LC-ESI-ITFT
Ms type: MS2
Ion mode: POSITIVE
Ionization: ESI
Collision energy: 40
Column name: Acquity CSHC18
Retention time: 1.463 min
Base peak: 133.06078
Precursor m/z: 133.06078
Precursor type: [M+H]+
m/z	relative intensity
70.0292	734
74.0242	999
86.489	507
97.2759	505
115.8821	516
119.2102	550
128.2381	537
139.9872	512
140.3797	503
141.1848	485
