Mass spectrum: 15-keto-17-phenyl trinor Prostaglandin F2-alpha ethyl amide; ESI-TOF; MS2; CE: 6.0000000;  [M+H]+
Name: 15-keto-17-phenyl trinor Prostaglandin F2-alpha ethyl amide
Class: NA
Formula: C25H35NO4
Exact mass: 413.25661
SMILES: CCNC(=O)CCC/C=C\C[C@H]1[C@@H](O)C[C@@H](O)[C@@H]1\C=C\C(=O)CCc1ccccc1
InChI: InChI=1S/C25H35NO4/c1-2-26-25(30)13-9-4-3-8-12-21-22(24(29)18-23(21)28)17-16-20(27)15-14-19-10-6-5-7-11-19/h3,5-8,10-11,16-17,21-24,28-29H,2,4,9,12-15,18H2,1H3,(H,26,30)/b8-3-,17-16+/t21-,22-,23+,24-/m1/s1
Instrument: waters xevo g2 TOF
Instrument type: ESI-TOF
Ms type: MS2
Ion mode: POSITIVE
Ionization: ESI
Collision energy: 6.0000000
Column name: Acquity CSHC18
Retention time: 3.341 min
Base peak: 414.26461
Precursor m/z: 414.26461
Precursor type: [M+H]+
m/z	relative intensity
127.9792	4
158.1185	6
177.1644	2
185.097	2
187.1116	1
201.1266	2
204.5968	36
205.0977	7
217.6093	11
220.1713	3
226.609	10
227.1103	4
230.2019	6
231.1568	1
246.1859	51
247.1887	6
248.1643	6
264.194	2
266.1753	3
290.2681	2
315.173	3
333.1859	4
334.2103	4
340.2263	1
350.2466	1
351.1969	2
352.2265	17
353.23	4
360.2323	42
361.2349	9
362.2346	1
370.2388	147
371.2413	38
372.241	3
378.2435	161
379.2462	40
380.2525	3
395.1543	6
396.2532	320
397.2591	92
398.2573	10
414.2639	999
415.2675	301
