Mass spectrum: CDP; LC-ESI-QTOF; MS2; CE: 100;  [M+H]+
Name: CDP
Class: Pyrimidine ribonucleoside diphosphates
Formula: C9H15N3O11P2
Exact mass: 403.01818
SMILES: NC1=NC(=O)N(C=C1)[C@@H]1O[C@H](COP(O)(=O)OP(O)(O)=O)[C@@H](O)[C@H]1O
InChI: InChI=1S/C9H15N3O11P2/c10-5-1-2-12(9(15)11-5)8-7(14)6(13)4(22-8)3-21-25(19,20)23-24(16,17)18/h1-2,4,6-8,13-14H,3H2,(H,19,20)(H2,10,11,15)(H2,16,17,18)/t4-,6-,7-,8-/m1/s1
Instrument: impact II
Instrument type: LC-ESI-QTOF
Ms type: MS2
Ion mode: POSITIVE
Ionization: ESI
Collision energy: 100
Column name: Acquity CSHC18
Retention time: 1.796 min
Base peak: 404.02680
Precursor m/z: 404.02680
Precursor type: [M+H]+
m/z	relative intensity
52.0187	165
67.0299	150
68.0138	117
69.0454	296
94.0399	221
95.024	999
112.0507	492
