Mass spectrum: Terpinolene; APCI-ITFT; MS2; CE: 35 CID;  [M+H]+
Name: Terpinolene
Class: NA
Formula: C10H16
Exact mass: 136.12520
SMILES: CC1=CCC(=C(C)C)CC1
InChI: InChI=1S/C10H16/c1-8(2)10-6-4-9(3)5-7-10/h4H,5-7H2,1-3H3
Instrument: Orbitrap Elite
Instrument type: APCI-ITFT
Ms type: MS2
Ion mode: POSITIVE
Ionization: APCI
Collision energy: 35 CID
Column name: Acquity CSHC18
Retention time: 0.096 min
Base peak: 137.13230
Precursor m/z: 137.13230
Precursor type: [M+H]+
Precursor intensity: 85221420
m/z	relative intensity
77.0386	2
79.0542	24
80.0575	1
80.0621	1
81.0697	472
83.0854	1
91.054	3
92.0577	1
92.0622	1
93.0696	20
94.0731	7
95.0855	630
105.0446	2
107.0853	10
108.089	22
108.0933	1
109.0649	1
109.101	54
117.0708	1
119.0852	3
120.0884	3
121.1012	15
122.1048	4
135.1163	3
136.0213	1
136.1205	46
137.0962	102
137.1162	1
137.1326	999
