Mass spectrum: O-acyl sugar AS6; LC-ESI-QTOF; MS2; CE: 22.5eV; [M+Na]+
Name: O-acyl sugar AS6
Class: O-acyl sugar
Formula: C30H52O14
Exact mass: 636.3357
SMILES: CC(CCC)C(=O)O[C@H]1[C@H](O[C@H](CO)[C@@H](OC(=O)C(C)CCC)[C@@H]1OC(=O)C(C)CCC)O[C@]1(CO)O[C@H](CO)[C@@H](O)[C@@H]1O
InChI: InChI=1S/C30H52O14/c1-7-10-16(4)26(36)40-22-20(14-32)39-29(44-30(15-33)25(35)21(34)19(13-31)43-30)24(42-28(38)18(6)12-9-3)23(22)41-27(37)17(5)11-8-2/h16-25,29,31-35H,7-15H2,1-6H3/t16?,17?,18?,19-,20-,21-,22-,23+,24-,25+,29-,30+/m1/s1
Instrument: Microtof-q MS
Instrument type: LC-ESI-QTOF
Ms type: MS2
Ion mode: POSITIVE
Ionization: ESI
Collision energy: 22.5eV
Column name: Acquity CSH C18 column (particle size 1.7 μm, column length 2.1 × 50 mm) (Waters)
Retention time: NA
Base peak: 659.3240
Precursor m/z: 659.3240
Precursor type: [M+Na]+
m/z	relative intensity
185.0408	25
381.1893	92
497.2725	999
659.3240	252
