Mass spectrum: Guanosine; LC-ESI-QTOF; MS2; CE: 60;  [M-H]-
Name: Guanosine
Class: NA
Formula: C10H13N5O5
Exact mass: 283.0917
SMILES: C1=NC2=C(N1C3C(C(C(O3)CO)O)O)N=C(NC2=O)N
InChI: InChI=1S/C10H13N5O5/c11-10-13-7-4(8(19)14-10)12-2-15(7)9-6(18)5(17)3(1-16)20-9/h2-3,5-6,9,16-18H,1H2,(H3,11,13,14,19)
Instrument: impact II
Instrument type: LC-ESI-QTOF
Ms type: MS2
Ion mode: NEGATIVE
Ionization: ESI
Collision energy: 60
Column name: Acquity CSHC18
Retention time: 1.805 min
Base peak: 282.0845
Precursor m/z: 282.0845
Precursor type: [M-H]-
m/z	relative intensity
66.0098	312
80.0252	177
107.0364	118
108.0204	835
126.0313	161
133.0158	999
