Mass spectrum: 5-Methoxytryptophol; LC-ESI-ITFT; MS2; CE: 20;  [M+H]+
Name: 5-Methoxytryptophol
Class: Organoheterocyclic compounds; Indoles and derivatives; Indoles
Formula: C11H13NO2
Exact mass: 191.09463
SMILES: COC1=CC=C2NC=C(CCO)C2=C1
InChI: InChI=1S/C11H13NO2/c1-14-9-2-3-11-10(6-9)8(4-5-13)7-12-11/h2-3,6-7,12-13H,4-5H2,1H3
Instrument: Thermo Scientific Q-Exactive Focus
Instrument type: LC-ESI-ITFT
Ms type: MS2
Ion mode: POSITIVE
Ionization: ESI
Collision energy: 20
Column name: Acquity CSHC18
Retention time: 0.630 min
Base peak: 192.10191
Precursor m/z: 192.10191
Precursor type: [M+H]+
m/z	relative intensity
115.0544	31
117.07	30
130.0653	49
131.0731	233
142.0652	34
143.073	310
144.0808	58
159.0679	822
160.0757	34
174.0914	999
