Mass spectrum: Phloretin; LC-ESI-QTOF; MS2; CE: 35;  [M-H]-
Name: Phloretin
Class: NA
Formula: C15H14O5
Exact mass: 274.0841
SMILES: C1=CC(=CC=C1CCC(=O)C2=C(C=C(C=C2O)O)O)O
InChI: InChI=1S/C15H14O5/c16-10-4-1-9(2-5-10)3-6-12(18)15-13(19)7-11(17)8-14(15)20/h1-2,4-5,7-8,16-17,19-20H,3,6H2
Instrument: Bruker MicrOTOF-Q
Instrument type: LC-ESI-QTOF
Ms type: MS2
Ion mode: NEGATIVE
Ionization: ESI
Collision energy: 35
Column name: Acquity CSHC18
Retention time: NA
Base peak: 273.0792
Precursor m/z: 273.0792
Precursor type: [M-H]-
m/z	relative intensity
107.0187	157
119.0484	999
123.0445	260
125.0199	189
145.0299	138
150.9997	142
189.0549	186
