Mass spectrum: scopoletin; LC-ESI-ITFT; MS2; CE: 0.3;  [M-H]-
Name: scopoletin
Class: coumarins
Formula: C10H8O4
Exact mass: 192.0423
SMILES: COC1=C(C=C2C(=C1)C=CC(=O)O2)O
InChI: InChI=1S/C10H8O4/c1-13-9-4-6-2-3-10(12)14-8(6)5-7(9)11/h2-5,11H,1H3
Instrument: LTQ-Orbitrap XL hybrid mass spectrometer (Thermo Scientific)
Instrument type: LC-ESI-ITFT
Ms type: MS2
Ion mode: NEGATIVE
Ionization: ESI
Collision energy: 0.3
Column name: Acquity CSHC18
Retention time: 5.550 min
Base peak: 191.0351
Precursor m/z: 191.0351
Precursor type: [M-H]-
Precursor intensity: 1476007
m/z	relative intensity
68.7612	7
87.4515	9
113.9841	8
146.9389	17
157.9074	8
167.1054	47
176.0116	999
188.0873	11
