Mass spectrum: DL-Citrulline; LC-ESI-ITFT; MS2; CE: 45eV;  [M+H]+
Name: DL-Citrulline
Class: aminoacid
Formula: C6H13N3O3
Exact mass: 175.0957
SMILES: C(CC(C(=O)O)N)CNC(=O)N
InChI: InChI=1S/C6H13N3O3/c7-4(5(10)11)2-1-3-9-6(8)12/h4H,1-3,7H2,(H,10,11)(H3,8,9,12)
Instrument: LTQ Orbitrap XL, Thermo Scientfic; Dionex Ultimate 300
Instrument type: LC-ESI-ITFT
Ms type: MS2
Ion mode: POSITIVE
Ionization: ESI
Collision energy: 45eV
Column name: Alltima C18
Retention time: 2.18 min
Base peak: 176.1023
Precursor m/z: 176.1023
Precursor type: [M+H]+
m/z	relative intensity
98.1098	999
142.1368	749
