Mass spectrum: 3-tigloyloxy-6-isovaleroyloxy-7-hydroxytropane; LC-ESI-QTOF; MS2; CE: 35eV;  [M+H]+
Name: 3-tigloyloxy-6-isovaleroyloxy-7-hydroxytropane
Class: Tropane_alkaloid
Formula: C18H29NO5
Exact mass: 339.2046
SMILES: CC(=C(C)C(=O)OC1CC2C(C(C(C1)N2C)OC(C(C)CC)=O)O)[H]
InChI: InChI=1S/C18H29NO5/c1-6-10(3)17(21)23-12-8-13-15(20)16(14(9-12)19(13)5)24-18(22)11(4)7-2/h6,11-16,20H,7-9H2,1-5H3
Instrument: maXis impact HD, Bruker; Dionex 3000, Thermo Scientific
Instrument type: LC-ESI-QTOF
Ms type: MS2
Ion mode: POSITIVE
Ionization: ESI
Collision energy: 35eV
Column name: Acquity CSHC18
Retention time: 11.015 min
Base peak: 340.2103
Precursor m/z: 340.2103
Precursor type: [M+H]+
Precursor intensity: 13682.13
m/z	relative intensity
91.0544	33
94.0661	33
96.0813	192
107.0492	65
110.0958	342
114.0944	25
120.0805	205
121.0829	30
131.9743	46
142.98	29
151.9358	26
156.1008	829
174.9478	26
180.9963	40
189.9945	25
194.9455	34
201.0365	25
208.0156	30
216.8933	39
218.9263	38
222.1482	180
229.9247	30
232.9394	28
234.9018	55
238.1419	69
240.1592	999
242.1591	26
246.9076	28
251.0788	31
253.054	30
257.1606	30
277.8797	28
