Mass spectrum: Epigallocatechin; LC-ESI-QFT; MS2; CE: NCE_15_30_62;  [M-H]-
Name: Epigallocatechin
Class: NA
Formula: C15H14O7
Exact mass: 306.0740
SMILES: C1C(C(OC2=CC(=CC(=C21)O)O)C3=CC(=C(C(=C3)O)O)O)O
InChI: InChI=1S/C15H14O7/c16-7-3-9(17)8-5-12(20)15(22-13(8)4-7)6-1-10(18)14(21)11(19)2-6/h1-4,12,15-21H,5H2
Instrument: Thermo_Qexactive_Plus
Instrument type: LC-ESI-QFT
Ms type: MS2
Ion mode: NEGATIVE
Ionization: ESI
Collision energy: NCE_15_30_62
Column name: Acquity CSHC18
Retention time: 2.898 min
Base peak: 305.0670
Precursor m/z: 305.0670
Precursor type: [M-H]-
Precursor intensity: 543187400
m/z	relative intensity
54.4021	6
57.033	6
57.2639	6
70.8169	6
81.0331	6
83.0124	6
93.0332	8
94.1731	8
95.032	8
97.0283	8
109.0285	9
111.0441	10
121.0281	10
123.0235	11
124.0148	11
125.023	11
126.0266	11
133.0652	12
134.7896	12
134.9411	12
135.0444	12
137.0258	12
138.0269	13
139.04	13
140.0429	13
147.044	14
149.0412	14
151.0395	15
159.0439	16
161.023	17
162.0314	18
163.0387	18
164.0115	18
165.0203	21
166.0235	22
167.0342	22
168.0379	23
173.061	23
175.0561	23
176.0478	23
177.0386	24
178.0377	24
179.0377	26
180.0388	26
181.0493	27
189.0728	28
191.0567	28
193.0505	28
201.0562	30
203.0351	30
204.043	33
215.0716	35
217.0477	38
218.0566	38
219.0665	48
220.0685	52
221.0466	53
222.0487	58
233.0816	59
235.1423	62
237.0755	83
243.0668	164
245.0447	200
247.0238	206
261.074	214
262.0808	253
263.0552	260
269.0459	261
287.0558	702
305.0683	999
