Mass spectrum: Phosphocreatine; LC-ESI-QTOF; MS2; CE: 15 / 50;  [M-H]-
Name: Phosphocreatine
Class: NA
Formula: C4H10N3O5P
Exact mass: 211.03581
SMILES: CN(CC(=O)O)C(=NP(=O)(O)O)N
InChI: InChI=1S/C4H10N3O5P/c1-7(2-3(8)9)4(5)6-13(10,11)12/h2H2,1H3,(H,8,9)(H4,5,6,10,11,12)
Instrument: impact II
Instrument type: LC-ESI-QTOF
Ms type: MS2
Ion mode: NEGATIVE
Ionization: ESI
Collision energy: 15 / 50
Column name: Acquity CSHC18
Retention time: 0.603 min
Base peak: 210.02820
Precursor m/z: 210.02820
Precursor type: [M-H]-
m/z	relative intensity
62.9636	3
78.959	999
79.016	3
79.0295	6
79.044	3
79.0795	3
96.9693	22
102.9707	4
120.981	16
167.0013	2
192.0165	4
210.0282	3
210.0463	1
210.993	2
211.1339	1
