Mass spectrum: D-Tartaric acid; LC-ESI-ITFT; MS2; CE: 10;  [M-H]-
Name: D-Tartaric acid
Class: Organic oxygen compounds; Organooxygen compounds; Carbohydrates and carbohydrate conjugates
Formula: C4H6O6
Exact mass: 150.01644
SMILES: O[C@@H]([C@H](O)C(O)=O)C(O)=O
InChI: InChI=1S/C4H6O6/c5-1(3(7)8)2(6)4(9)10/h1-2,5-6H,(H,7,8)(H,9,10)/t1-,2-/m0/s1
Instrument: Thermo Scientific Q-Exactive Focus
Instrument type: LC-ESI-ITFT
Ms type: MS2
Ion mode: NEGATIVE
Ionization: ESI
Collision energy: 10
Column name: Acquity CSHC18
Retention time: 0.367 min
Base peak: 149.00916
Precursor m/z: 149.00916
Precursor type: [M-H]-
m/z	relative intensity
59.0127	171
72.9919	392
75.0076	21
87.0076	743
103.0025	141
105.0181	45
130.9975	34
132.3735	3
149.0081	999
166.2594	3
