Mass spectrum: Salicyluric acid; ESI-TOF; MS2; CE: 6.0000000;  [M+H]+
Name: Salicyluric acid
Class: NA
Formula: C9H9NO4
Exact mass: 195.05316
SMILES: OC(=O)CNC(=O)C1=CC=CC=C1O
InChI: InChI=1S/C9H9NO4/c11-7-4-2-1-3-6(7)9(14)10-5-8(12)13/h1-4,11H,5H2,(H,10,14)(H,12,13)
Instrument: waters xevo g2 TOF
Instrument type: ESI-TOF
Ms type: MS2
Ion mode: POSITIVE
Ionization: ESI
Collision energy: 6.0000000
Column name: Acquity CSHC18
Retention time: 2.163 min
Base peak: 196.06116
Precursor m/z: 196.06116
Precursor type: [M+H]+
m/z	relative intensity
96.9617	33
113.9868	3
121.1393	999
122.0327	242
123.0126	22
127.037	2
127.9798	18
143.0249	9
147.0266	1
150.055	15
155.0132	3
157.0367	1
170.1174	2
176.9867	6
178.0855	12
186.2227	2
196.0608	234
197.0672	22
198.0662	2
202.0436	12
203.075	1
204.9818	14
205.9868	1
210.1103	7
215.9976	3
216.9919	1
218.042	485
219.0396	58
220.048	6
224.1184	1
234.0082	29
235.9834	3
242.049	1
245.0324	5
246.0085	3
248.0173	4
248.9731	7
249.9797	10
250.984	2
251.9807	13
266.0306	19
269.9921	1
272.0363	4
274.1347	4
276.9675	3
280.9983	5
282.0054	6
284.0328	3
290.0186	1
291.0182	13
295.0078	9
295.9794	2
301.1233	1
309.0391	9
310.0443	4
319.0328	28
320.0431	4
327.0064	1
330.0347	6
333.0764	2
345.2424	1
354.0288	17
370.0002	6
371.1138	1
387.0435	5
409.0653	2
413.0839	16
414.0853	5
415.0723	74
416.0759	14
417.0777	2
421.0454	2
426.0792	2
429.0605	222
430.0637	48
431.0656	10
433.0546	3
437.1458	4
440.0311	5
441.0334	1
442.0309	33
443.0361	12
444.0257	483
445.0293	191
446.0324	40
447.0323	84
448.0365	17
449.03	33
450.0702	14
451.1105	4
453.0256	1
454.0306	2
456.0248	44
457.0272	14
458.0314	3
459.2783	1
464.0104	1
465.0726	16
466.0415	9
467.0446	2
468.0804	11
470.077	5
472.0781	1
520.3306	1
624.1152	7
663.0412	2
677.024	5
691.9896	27
692.9943	14
693.9918	4
695.0007	6
696.0024	1
