Mass spectrum: Benzoic acid; LC-ESI-ITFT; MS2; CE: 10;  [M-H]-
Name: Benzoic acid
Class: Benzenoids; Benzene and substituted derivatives; Benzoic acids and derivatives
Formula: C7H6O2
Exact mass: 122.03678
SMILES: OC(=O)C1=CC=CC=C1
InChI: InChI=1S/C7H6O2/c8-7(9)6-4-2-1-3-5-6/h1-5H,(H,8,9)
Instrument: Thermo Scientific Q-Exactive Focus
Instrument type: LC-ESI-ITFT
Ms type: MS2
Ion mode: NEGATIVE
Ionization: ESI
Collision energy: 10
Column name: Acquity CSHC18
Retention time: 0.360 min
Base peak: 121.02950
Precursor m/z: 121.02950
Precursor type: [M-H]-
m/z	relative intensity
57.9745	5
61.9871	9
79.189	4
90.6488	4
92.9587	12
93.0334	14
121.0284	999
123.306	4
127.4612	4
135.4425	4
