Mass spectrum: Maltotriose; ESI-TOF; MS2; CE: 6.0000000;  [M+H]+
Name: Maltotriose
Class: NA
Formula: C18H32O16
Exact mass: 504.16903
SMILES: OCC1OC(OC2C(CO)OC(OC3C(CO)OC(O)C(O)C3O)C(O)C2O)C(O)C(O)C1O
InChI: InChI=1S/C18H32O16/c19-1-4-7(22)8(23)12(27)17(31-4)34-15-6(3-21)32-18(13(28)10(15)25)33-14-5(2-20)30-16(29)11(26)9(14)24/h4-29H,1-3H2
Instrument: waters xevo g2 TOF
Instrument type: ESI-TOF
Ms type: MS2
Ion mode: POSITIVE
Ionization: ESI
Collision energy: 6.0000000
Column name: Acquity CSHC18
Retention time: 0.559 min
Base peak: 505.17703
Precursor m/z: 505.17703
Precursor type: [M+H]+
m/z	relative intensity
85.0295	249
96.9619	64
97.0296	113
98.9626	1
101.9645	1
109.0297	21
127.0398	279
145.0503	481
146.0541	28
158.004	48
163.061	322
173.0014	430
184.9866	220
216.9797	1
233.9828	1
236.9395	15
236.9411	18
275.994	1
277.0002	1
289.0936	41
325.1131	999
326.1165	87
396.0346	124
439.0521	76
441.0528	1
487.1667	46
527.1601	213
528.1635	32
543.133	12
558.0888	258
559.0966	166
560.0994	33
618.1079	7
829.2815	16
991.3487	15
1009.3473	47
1010.3491	20
1031.3284	32
1062.2542	48
1063.2634	25
