Mass spectrum: lactucopicrin; LC-ESI-ITFT; MS2; CE: 0.3;  [M+H]+
Name: lactucopicrin
Class: sesquiterpene lactones
Formula: C23H22O7
Exact mass: 410.1366
SMILES: CC1=C2C(C3C(C(C1)OC(=O)CC4=CC=C(C=C4)O)C(=C)C(=O)O3)C(=CC2=O)CO
InChI: InChI=1S/C23H22O7/c1-11-7-17(29-18(27)8-13-3-5-15(25)6-4-13)20-12(2)23(28)30-22(20)21-14(10-24)9-16(26)19(11)21/h3-6,9,17,20-22,24-25H,2,7-8,10H2,1H3
Instrument: LTQ-Orbitrap XL hybrid mass spectrometer (Thermo Scientific)
Instrument type: LC-ESI-ITFT
Ms type: MS2
Ion mode: POSITIVE
Ionization: ESI
Collision energy: 0.3
Column name: Acquity CSHC18
Retention time: 9.431 min
Base peak: 411.1451
Precursor m/z: 411.1451
Precursor type: [M+H]+
Precursor intensity: 50899990
m/z	relative intensity
103.1442	2
115.6478	1
127.1149	2
142.078	2
157.1017	17
161.1628	3
161.1677	1
167.086	9
169.1018	2
171.0813	3
175.076	11
183.0811	3
185.0968	48
186.1003	2
187.076	1
191.7739	1
194.5084	1
194.5138	1
194.5276	1
194.5351	1
194.5408	1
195.0813	12
196.1093	6
199.0761	2
203.1075	9
211.0766	5
213.0919	102
214.0954	5
223.0762	7
231.1026	19
241.0871	61
242.0905	3
257.2927	3
257.8926	4
258.1323	2
259.0744	5
259.0773	7
259.0807	5
259.0836	8
259.0977	999
259.1088	5
259.1122	5
259.1151	7
259.1185	4
259.1214	5
260.0693	2
260.1009	43
260.3126	3
260.9223	4
286.5022	3
286.5135	4
286.5247	2
323.7577	2
335.9345	1
351.5983	2
