Mass spectrum: 3-METHYL-2-OXINDOLE; LC-ESI-QTOF; MS2; CE: 40;  [M+H]+
Name: 3-METHYL-2-OXINDOLE
Class: NA
Formula: C9H9NO
Exact mass: 147.06841
SMILES: CC1C2=CC=CC=C2NC1=O
InChI: InChI=1S/C9H9NO/c1-6-7-4-2-3-5-8(7)10-9(6)11/h2-6H,1H3,(H,10,11)
Instrument: Agilent 6530Â Q-TOF LC/MS
Instrument type: LC-ESI-QTOF
Ms type: MS2
Ion mode: POSITIVE
Ionization: ESI
Collision energy: 40
Column name: NA
Retention time: 0.200 min
Base peak: 148.07508
Precursor m/z: 148.07508
Precursor type: [M+H]+
Precursor intensity: 15.5
m/z	relative intensity
42.0548	33
43.0285	34
44.0153	34
50.0229	35
51.0653	35
51.2627	35
52.0515	36
53.0423	39
55.018	40
62.0184	40
63.0267	41
64.0294	48
65.0492	49
66.0561	53
74.0169	55
75.0212	56
76.0298	60
77.33	62
77.7889	66
78.0773	70
78.4347	72
79.0602	77
80.0519	82
87.0169	83
88.041	91
89.0495	99
90.0528	103
91.07	103
92.0516	112
93.0772	136
94.0695	136
101.0393	139
102.0616	156
103.0802	161
104.3228	163
104.8743	172
105.068	197
114.0461	204
115.0459	224
117.0617	306
118.084	370
119.0763	393
120.0884	407
128.0608	409
130.0955	648
131.0451	705
132.064	958
133.0835	999
146.0699	33
