Mass spectrum: NORLEUCINE; LC-ESI-QTOF; MS2; CE: 10;  [M+H]+
Name: NORLEUCINE
Class: NA
Formula: C6H13NO2
Exact mass: 131.09463
SMILES: CCCC[C@H](N)C(O)=O
InChI: InChI=1S/C6H13NO2/c1-2-3-4-5(7)6(8)9/h5H,2-4,7H2,1H3,(H,8,9)/t5-/m0/s1
Instrument: Agilent 6530Â Q-TOF LC/MS
Instrument type: LC-ESI-QTOF
Ms type: MS2
Ion mode: POSITIVE
Ionization: ESI
Collision energy: 10
Column name: NA
Retention time: 0.200 min
Base peak: 132.10205
Precursor m/z: 132.10205
Precursor type: [M+H]+
Precursor intensity: 26.5
m/z	relative intensity
41.0559	34
43.0647	39
44.0615	46
62.941	51
69.1001	113
70.0658	126
73.0618	164
86.4919	170
87.1131	398
90.9069	433
103.9676	785
132.1312	999
