Mass spectrum: N,N-DIMETHYL-1,4-PHENYLENEDIAMINE; LC-ESI-QFT; MS2; CE: 30eV;  [M+H]+
Name: N,N-DIMETHYL-1,4-PHENYLENEDIAMINE
Class: NA
Formula: C8H12N2
Exact mass: 136.10005
SMILES: CN(C)C1=CC=C(C=C1)N
InChI: InChI=1S/C8H12N2/c1-10(2)8-5-3-7(9)4-6-8/h3-6H,9H2,1-2H3
Instrument: Q-Exactive Orbitrap, Thermo Scientfic; Ultimate 3000 HPLC, Thermo Scientfic
Instrument type: LC-ESI-QFT
Ms type: MS2
Ion mode: POSITIVE
Ionization: ESI
Collision energy: 30eV
Column name: Acquity CSHC18
Retention time: 0.845 min
Base peak: 137.1073
Precursor m/z: 137.1073
Precursor type: [M+H]+
Precursor intensity: 179
m/z	relative intensity
53.76	2
53.969	2
54.4215	2
54.9344	2
56.9355	2
59.8396	2
62.6922	2
65.7595	2
67.0549	3
68.9528	3
79.0549	3
80.0498	3
80.2667	2
81.0704	49
88.7427	2
90.9483	5
95.0861	30
107.0606	18
108.0289	2
108.9589	2
109.0651	20
109.1015	3
114.971	4
121.076	6
122.084	999
123.0681	23
123.0873	44
125.5271	2
132.9586	13
136.0213	5
136.0993	20
137.0247	6
137.039	6
137.0596	14
137.0833	11
137.1073	450
137.1325	12
138.0176	3
138.0551	5
138.0915	26
138.1106	17
143.03	2
145.9905	3
