Mass spectrum: CYCLIC AMP; LC-ESI-QTOF; MS2; CE: 20;  [M+H]+
Name: CYCLIC AMP
Class: NA
Formula: C10H12N5O6P
Exact mass: 329.05252
SMILES: [H][C@@]12COP(O)(=O)O[C@@]1([H])[C@@H](O)[C@@H](O2)N1C=NC2=C1N=CN=C2N
InChI: InChI=1S/C10H12N5O6P/c11-8-5-9(13-2-12-8)15(3-14-5)10-6(16)7-4(20-10)1-19-22(17,18)21-7/h2-4,6-7,10,16H,1H2,(H,17,18)(H2,11,12,13)/t4-,6-,7-,10-/m1/s1
Instrument: Agilent 6530Â Q-TOF LC/MS
Instrument type: LC-ESI-QTOF
Ms type: MS2
Ion mode: POSITIVE
Ionization: ESI
Collision energy: 20
Column name: NA
Retention time: 0.200 min
Base peak: 330.05491
Precursor m/z: 330.05491
Precursor type: [M+H]+
Precursor intensity: 196.5
m/z	relative intensity
69.0405	28
97.0422	32
98.9998	33
109.0537	33
116.1128	35
119.0397	38
123.1134	41
136.2142	48
136.5852	48
137.081	56
146.0433	58
148.0552	58
176.0824	61
177.0114	61
178.0767	90
190.0689	90
204.1066	99
214.0837	105
232.0947	109
250.0939	127
312.085	173
329.2062	237
330.1011	510
330.3354	999
