Mass spectrum: Dopamine; LC-ESI-ITFT; MS2; CE: 10;  [M+H]+
Name: Dopamine
Class: Benzenoids; Phenols; Benzenediols
Formula: C8H11NO2
Exact mass: 153.07898
SMILES: NCCC1=CC(O)=C(O)C=C1
InChI: InChI=1S/C8H11NO2/c9-4-3-6-1-2-7(10)8(11)5-6/h1-2,5,10-11H,3-4,9H2
Instrument: Thermo Scientific Q-Exactive Focus
Instrument type: LC-ESI-ITFT
Ms type: MS2
Ion mode: POSITIVE
Ionization: ESI
Collision energy: 10
Column name: Acquity CSHC18
Retention time: 0.348 min
Base peak: 154.08626
Precursor m/z: 154.08626
Precursor type: [M+H]+
m/z	relative intensity
65.0391	3
90.6327	1
91.0546	71
106.0653	1
109.0651	2
118.3808	1
119.0493	57
137.0598	999
139.7534	1
154.0863	6
