Mass spectrum: 4-(methylthio)butyl-glucosinolate; LC-ESI-QTOF; MS2; CE: 50eV;  [M-H]-
Name: 4-(methylthio)butyl-glucosinolate
Class: aliphatic glucosinolate
Formula: C12H23NO9S3
Exact mass: 421.0535
SMILES: O[C@H]1[C@@H](O)[C@@H](O)[C@H](S/C(CCCCSC)=N/OS(=O)(O)=O)O[C@@H]1CO
InChI: InChI=1S/C12H23NO9S3/c1-23-5-3-2-4-8(13-22-25(18,19)20)24-12-11(17)10(16)9(15)7(6-14)21-12/h7,9-12,14-17H,2-6H2,1H3,(H,18,19,20)/b13-8+/t7-,9-,10-,11-,12+/m1/s1
Instrument: TIMS-TOF Pro, Bruker Daltonik; Elute UHPLC System, Bruker Daltonik
Instrument type: LC-ESI-QTOF
Ms type: MS2
Ion mode: NEGATIVE
Ionization: ESI
Collision energy: 50eV
Column name: Acquity CSHC18
Retention time: 5.967 min
Base peak: 420.0394
Precursor m/z: 420.0394
Precursor type: [M-H]-
Precursor intensity: 111792.1
m/z	relative intensity
46.9939	3
48.4304	1
59.0127	19
63.9609	2
64.9686	2
71.0127	10
73.9809	1
74.9892	353
75.992	5
76.9849	9
79.9556	92
80.964	8
81.9516	3
85.0274	3
89.0221	5
95.8888	1
95.9506	494
96.2342	1
96.9587	363
97.027	1
97.2352	1
97.9455	11
98.9546	7
101.0216	3
113.0206	2
119.0324	4
127.921	2
128.9306	1
138.9674	4
154.7799	1
178.0301	2
179.035	1
195.0314	9
196.0324	1
199.3778	1
201.1047	1
206.2917	1
217.8866	1
224.0011	1
227.0177	2
259.0102	11
260.011	1
274.9846	6
290.9823	1
340.0792	1
419.9521	1
420.0394	999
420.3642	1
