Mass spectrum: Monomethyl phthalate; LC-ESI-ITFT; MS2; CE: 20;  [M+H]+
Name: Monomethyl phthalate
Class: Benzenoids; Benzene and substituted derivatives; Benzoic acids and derivatives
Formula: C9H8O4
Exact mass: 180.04226
SMILES: COC(=O)C1=CC=CC=C1C(O)=O
InChI: InChI=1S/C9H8O4/c1-13-9(12)7-5-3-2-4-6(7)8(10)11/h2-5H,1H3,(H,10,11)
Instrument: Thermo Scientific Q-Exactive Focus
Instrument type: LC-ESI-ITFT
Ms type: MS2
Ion mode: POSITIVE
Ionization: ESI
Collision energy: 20
Column name: Acquity CSHC18
Retention time: 0.630 min
Base peak: 181.04955
Precursor m/z: 181.04955
Precursor type: [M+H]+
m/z	relative intensity
65.0391	49
79.0546	31
93.0338	26
95.0494	54
121.0285	209
121.0397	29
133.0284	170
135.044	181
149.0233	999
163.0389	613
