Mass spectrum: HISTIDINOL; LC-ESI-QTOF; MS2; CE: 10;  [M+H]+
Name: HISTIDINOL
Class: NA
Formula: C6H11N3O
Exact mass: 141.09021
SMILES: N[C@H](CO)CC1=CN=CN1
InChI: InChI=1S/C6H11N3O/c7-5(3-10)1-6-2-8-4-9-6/h2,4-5,10H,1,3,7H2,(H,8,9)/t5-/m0/s1
Instrument: Agilent 6530Â Q-TOF LC/MS
Instrument type: LC-ESI-QTOF
Ms type: MS2
Ion mode: POSITIVE
Ionization: ESI
Collision energy: 10
Column name: NA
Retention time: 0.200 min
Base peak: 142.09867
Precursor m/z: 142.09867
Precursor type: [M+H]+
Precursor intensity: 118.5
m/z	relative intensity
41.0462	17
42.0435	18
43.0152	18
44.0956	19
45.0497	21
52.0225	21
53.0506	21
54.0613	22
55.0455	22
56.0686	22
57.0534	22
60.0806	24
67.0424	24
68.0717	24
69.0683	25
70.0697	26
78.0341	27
80.08	27
80.3032	30
80.5859	32
80.6786	33
80.8495	35
81.773	36
82.716	41
82.9203	55
83.3319	65
84.0645	83
95.3999	169
95.9884	204
97.1006	206
97.9694	222
101.9515	293
107.0955	311
107.3091	333
107.5764	455
109.0676	543
125.06	553
126.3472	630
126.7134	661
142.617	730
143.4084	999
