Mass spectrum: H-Leu-Pro-OH; LC-ESI-QTOF; MS2; CE: 15.00;  [M+H]+
Name: H-Leu-Pro-OH
Class: NA
Formula: C11H20N2O3
Exact mass: 228.1474
SMILES: CC(C)CC(C(=O)N1CCCC1C(=O)O)N
InChI: InChI=1S/C11H20N2O3/c1-7(2)6-8(12)10(14)13-5-3-4-9(13)11(15)16/h7-9H,3-6,12H2,1-2H3,(H,15,16)
Instrument: Bruker MicrOTOF-Q
Instrument type: LC-ESI-QTOF
Ms type: MS2
Ion mode: POSITIVE
Ionization: ESI
Collision energy: 15.00
Column name: Acquity CSHC18
Retention time: NA
Base peak: 229.1547
Precursor m/z: 229.1547
Precursor type: [M+H]+
m/z	relative intensity
141.16	8
168.16	10
194.12	8
212.14	16
229.15	999
229.99	9
230.15	78
243.32	14
