Mass spectrum: Allose; ESI-TOF; MS2; CE: 6.0000000;  [M+H]+
Name: Allose
Class: NA
Formula: C6H12O6
Exact mass: 180.06339
SMILES: OCC1OC(O)C(O)C(O)C1O
InChI: InChI=1S/C6H12O6/c7-1-2-3(8)4(9)5(10)6(11)12-2/h2-11H,1H2
Instrument: waters xevo g2 TOF
Instrument type: ESI-TOF
Ms type: MS2
Ion mode: POSITIVE
Ionization: ESI
Collision energy: 6.0000000
Column name: Acquity CSHC18
Retention time: 0.565 min
Base peak: 181.07139
Precursor m/z: 181.07139
Precursor type: [M+H]+
m/z	relative intensity
96.9611	48
96.9612	32
101.9403	1
113.0796	11
127.0394	85
129.0524	35
129.0532	32
135.9917	11
143.9593	15
145.05	50
154.9669	42
163.0605	64
174.9559	13
191.0413	10
203.0533	999
204.0582	70
215.971	44
233.9826	26
243.9677	41
256.1026	18
258.1675	10
258.1715	13
261.9786	30
262.9848	19
275.9934	41
280.9962	47
290.0773	40
294.0041	296
295.0092	92
297.0117	11
355.0362	10
378.0237	21
383.1164	41
385.0928	18
414.0471	80
415.0511	31
