Mass spectrum: 3-Nitrotyrosine; LC-ESI-ITFT; MS2; CE: 10;  [M+H]+
Name: 3-Nitrotyrosine
Class: Organic acids and derivatives; Carboxylic acids and derivatives; Amino acids, peptides, and analogues
Formula: C9H10N2O5
Exact mass: 226.05897
SMILES: N[C@@H](CC1=CC=C(O)C(=C1)[N+]([O-])=O)C(O)=O
InChI: InChI=1S/C9H10N2O5/c10-6(9(13)14)3-5-1-2-8(12)7(4-5)11(15)16/h1-2,4,6,12H,3,10H2,(H,13,14)/t6-/m0/s1
Instrument: Thermo Scientific Q-Exactive Focus
Instrument type: LC-ESI-ITFT
Ms type: MS2
Ion mode: POSITIVE
Ionization: ESI
Collision energy: 10
Column name: Acquity CSHC18
Retention time: 0.348 min
Base peak: 227.06625
Precursor m/z: 227.06625
Precursor type: [M+H]+
m/z	relative intensity
117.0448	8
136.0392	2
148.0393	3
164.034	17
168.0289	40
181.0607	999
196.6846	1
210.0395	99
227.066	115
227.1751	1
