Mass spectrum: INDOLE-3-ACETAMIDE; LC-ESI-QFT; MS2; CE: 30eV;  [M+H]+
Name: INDOLE-3-ACETAMIDE
Class: NA
Formula: C10H10N2O
Exact mass: 174.07931
SMILES: OC(=N)CC1=CNC2=CC=CC=C12
InChI: InChI=1S/C10H10N2O/c11-10(13)5-7-6-12-9-4-2-1-3-8(7)9/h1-4,6,12H,5H2,(H2,11,13)
Instrument: Q-Exactive Orbitrap, Thermo Scientfic; Ultimate 3000 HPLC, Thermo Scientfic
Instrument type: LC-ESI-QFT
Ms type: MS2
Ion mode: POSITIVE
Ionization: ESI
Collision energy: 30eV
Column name: Acquity CSHC18
Retention time: 5.784 min
Base peak: 175.0866
Precursor m/z: 175.0866
Precursor type: [M+H]+
Precursor intensity: 169
m/z	relative intensity
51.0234	5
53.8568	3
55.5914	4
61.0628	4
63.9998	3
64.6092	4
65.9915	4
67.2892	4
69.1539	4
69.466	4
72.7434	5
77.039	31
95.0499	6
99.7859	5
103.0546	22
105.0453	7
128.0493	6
131.0686	688
147.9438	4
150.6209	5
153.2614	6
158.0603	999
159.0635	62
175.0868	822
176.0903	67
