Mass spectrum: Isoleucine; LC-ESI-QTOF; MS2; CE: 30;  [M+H]+
Name: Isoleucine
Class: NA
Formula: C6H13NO2
Exact mass: 131.09463
SMILES: CCC(C)C(C(=O)O)N
InChI: InChI=1S/C6H13NO2/c1-3-4(2)5(7)6(8)9/h4-5H,3,7H2,1-2H3,(H,8,9)
Instrument: impact II
Instrument type: LC-ESI-QTOF
Ms type: MS2
Ion mode: POSITIVE
Ionization: ESI
Collision energy: 30
Column name: Acquity CSHC18
Retention time: 1.786 min
Base peak: 132.10200
Precursor m/z: 132.10200
Precursor type: [M+H]+
m/z	relative intensity
69.0706	999
86.0968	623
133.0772	315
