Mass spectrum: Isofraxidin; LC-ESI-QTOF; MS2; CE: 15;  [M-H]-
Name: Isofraxidin
Class: NA
Formula: C11H10O5
Exact mass: 222.0528
SMILES: COC1=C(C(=C2C(=C1)C=CC(=O)O2)OC)O
InChI: InChI=1S/C11H10O5/c1-14-7-5-6-3-4-8(12)16-10(6)11(15-2)9(7)13/h3-5,13H,1-2H3
Instrument: Bruker MicrOTOF-Q
Instrument type: LC-ESI-QTOF
Ms type: MS2
Ion mode: NEGATIVE
Ionization: ESI
Collision energy: 15
Column name: Acquity CSHC18
Retention time: NA
Base peak: 221.0455
Precursor m/z: 221.0455
Precursor type: [M-H]-
m/z	relative intensity
107.0138	22
119.0108	53
135.0103	407
136.0127	24
147.006	45
148.0219	16
149.0265	19
150.0284	81
151.0303	16
163.0032	999
164.0033	77
175.0044	48
177.0158	27
178.0255	43
191.1378	754
192.9996	30
205.0138	167
206.1543	954
207.0253	498
221.0416	88
