Mass spectrum: N-arachidonoylglycine; ESI-TOF; MS2; CE: 6.0000000;  [M+H]+
Name: N-arachidonoylglycine
Class: NA
Formula: C22H35NO3
Exact mass: 361.26169
SMILES: [H]OC(=O)C([H])([H])N([H])C(=O)C([H])([H])C([H])([H])C([H])([H])C([H])=C([H])C([H])([H])C([H])=C([H])C([H])([H])C([H])=C([H])C([H])([H])C([H])=C([H])C([H])([H])C([H])([H])C([H])([H])C([H])([H])C([H])([H])[H]
InChI: InChI=1S/C22H35NO3/c1-2-3-4-5-6-7-8-9-10-11-12-13-14-15-16-17-18-19-21(24)23-20-22(25)26/h6-7,9-10,12-13,15-16H,2-5,8,11,14,17-20H2,1H3,(H,23,24)(H,25,26)
Instrument: waters xevo g2 TOF
Instrument type: ESI-TOF
Ms type: MS2
Ion mode: POSITIVE
Ionization: ESI
Collision energy: 6.0000000
Column name: Acquity CSHC18
Retention time: 7.483 min
Base peak: 362.26969
Precursor m/z: 362.26969
Precursor type: [M+H]+
m/z	relative intensity
81.0711	6
91.0555	4
93.071	5
95.0865	7
105.0712	10
109.1021	5
113.9803	16
119.0867	18
121.1021	23
131.0864	16
133.1015	22
135.1172	15
142.0512	22
145.1014	13
147.1172	17
149.0965	22
157.1014	9
158.082	11
159.1171	11
161.1336	18
163.1485	17
171.1167	22
172.1105	12
173.1336	14
175.1484	31
177.1648	27
185.1329	23
187.1482	18
189.1644	53
191.1801	25
198.1123	9
199.1484	20
200.6125	45
201.164	11
203.1803	124
204.1838	19
205.176	9
210.1121	13
212.1291	14
213.164	12
224.129	23
226.1451	20
240.1596	8
243.2102	14
245.2269	79
246.2296	11
259.2425	64
260.2459	12
264.1603	12
269.227	215
270.2302	48
278.1755	13
287.2374	492
288.2413	111
289.2439	10
326.1758	6
334.2726	8
343.1954	12
344.2566	11
362.2696	999
363.2727	263
