Mass spectrum: Folic acid; LC-ESI-QTOF; MS2; CE: 25.51;  [M-H]-
Name: Folic acid
Class: NA
Formula: C19H19N7O6
Exact mass: 441.1397
SMILES: C1=CC(=CC=C1C(=O)NC(CCC(=O)O)C(=O)O)NCC2=CN=C3C(=N2)C(=O)N=C(N3)N
InChI: InChI=1S/C19H19N7O6/c20-19-25-15-14(17(30)26-19)23-11(8-22-15)7-21-10-3-1-9(2-4-10)16(29)24-12(18(31)32)5-6-13(27)28/h1-4,8,12,21H,5-7H2,(H,24,29)(H,27,28)(H,31,32)(H3,20,22,25,26,30)
Instrument: Bruker MicrOTOF-Q
Instrument type: LC-ESI-QTOF
Ms type: MS2
Ion mode: NEGATIVE
Ionization: ESI
Collision energy: 25.51
Column name: Acquity CSHC18
Retention time: NA
Base peak: 440.1324
Precursor m/z: 440.1324
Precursor type: [M-H]-
m/z	relative intensity
102.0568	3
106.0399	3
117.0451	2
119.0364	17
120.0262	2
128.0355	98
129.0352	4
131.0386	4
132.0444	183
133.0463	23
135.0559	36
136.0419	49
137.0426	4
146.0459	48
147.0541	29
148.061	13
149.0491	2
157.0373	4
159.0952	4
161.0705	7
162.0421	68
163.0438	4
174.214	26
175.0502	744
176.0548	136
177.1032	84
178.1038	8
185.072	3
193.0648	3
197.0832	10
198.0747	4
201.0659	5
203.0821	109
204.0852	15
207.042	14
210.08	2
215.0782	3
220.0847	99
221.0931	595
222.0933	86
223.0744	13
224.0934	85
225.0871	18
226.0765	3
233.0929	8
237.091	9
238.0893	3
240.0968	13
241.0822	5
247.0716	34
248.0712	4
249.0886	10
250.0742	31
251.0733	7
252.079	4
254.0933	3
255.1241	4
264.0778	11
265.0839	143
266.0874	34
267.0997	283
268.0882	154
269.0841	29
270.0759	5
272.1039	7
280.115	3
281.1131	9
282.1341	36
283.1319	8
284.1041	29
285.1088	5
286.0971	3
290.1066	2
291.134	19
292.0957	101
293.0795	456
294.0797	92
295.0846	13
299.1124	7
301.1285	4
306.1112	15
307.1246	7
308.1155	56
309.1436	70
309.9971	77
310.8889	544
312.0923	277
313.0945	32
324.1216	18
325.1213	6
326.1251	71
327.1221	14
328.1365	14
334.1423	136
335.1278	196
336.1221	102
337.1228	17
338.1268	2
350.1343	15
351.1256	12
352.152	79
353.1368	437
354.1328	123
355.1345	18
360.1219	4
361.1094	2
368.1102	19
369.1183	5
378.1318	372
379.1318	92
380.1307	13
394.1263	5
396.1428	999
397.1435	238
398.1441	35
399.144	3
422.1202	43
423.1157	19
424.1153	3
440.1321	198
441.1352	44
442.1357	7
