Mass spectrum: L-Asparagine; LC-ESI-QTOF; MS2; CE: 15.00;  [M-H]-
Name: L-Asparagine
Class: NA
Formula: C4H8N2O3
Exact mass: 132.0535
SMILES: C(C(C(=O)O)N)C(=O)N
InChI: InChI=1S/C4H8N2O3/c5-2(4(8)9)1-3(6)7/h2H,1,5H2,(H2,6,7)(H,8,9)
Instrument: Bruker MicrOTOF-Q
Instrument type: LC-ESI-QTOF
Ms type: MS2
Ion mode: NEGATIVE
Ionization: ESI
Collision energy: 15.00
Column name: Acquity CSHC18
Retention time: NA
Base peak: 131.0462
Precursor m/z: 131.0462
Precursor type: [M-H]-
m/z	relative intensity
50.2687	236
52.0236	145
70.3817	217
76.5109	121
79.1261	248
95.4759	133
96.9662	151
106.4702	139
113.0397	405
114.0234	999
132.9894	145
140.003	175
155.0571	145
166.2079	199
176.6784	175
187.9788	187
190.4569	163
209.648	133
245.1838	121
275.1164	224
283.1276	181
290.5065	139
359.5405	157
439.261	205
450.423	175
501.5267	133
538.6047	121
572.7537	145
599.1807	175
615.5158	133
648.4767	224
665.9879	139
725.874	187
738.237	217
777.8357	127
789.857	145
903.6803	205
945.301	163
