Mass spectrum: Salicylic acid; LC-ESI-ITFT; MS2; CE: 60;  [M-H]-
Name: Salicylic acid
Class: Benzenoids; Benzene and substituted derivatives; Benzoic acids and derivatives
Formula: C7H6O3
Exact mass: 138.03169
SMILES: OC(=O)C1=CC=CC=C1O
InChI: InChI=1S/C7H6O3/c8-6-4-2-1-3-5(6)7(9)10/h1-4,8H,(H,9,10)
Instrument: Thermo Scientific Q-Exactive Focus
Instrument type: LC-ESI-ITFT
Ms type: MS2
Ion mode: NEGATIVE
Ionization: ESI
Collision energy: 60
Column name: Acquity CSHC18
Retention time: 1.743 min
Base peak: 137.02441
Precursor m/z: 137.02441
Precursor type: [M-H]-
m/z	relative intensity
56.0269	94
65.0385	999
67.6261	102
76.2277	103
81.1349	105
85.7067	96
87.0546	106
93.0334	184
123.1405	109
144.5417	113
