Mass spectrum: 1-stearoyl-2-hydroxy-sn-glycero-3-phosphocholine; ESI-TOF; MS2; CE: 0.6458333;  [M+H]+
Name: 1-stearoyl-2-hydroxy-sn-glycero-3-phosphocholine
Class: NA
Formula: C26H54NO7P
Exact mass: 523.36379
SMILES: [H]OC([H])(C([H])([H])OC(=O)C([H])([H])C([H])([H])C([H])([H])C([H])([H])C([H])([H])C([H])([H])C([H])([H])C([H])([H])C([H])([H])C([H])([H])C([H])([H])C([H])([H])C([H])([H])C([H])([H])C([H])([H])C([H])([H])C([H])([H])[H])C([H])([H])OP(=O)([O-])OC([H])([H])C([H])([H])[N+](C([H])([H])[H])(C([H])([H])[H])C([H])([H])[H]
InChI: InChI=1S/C26H54NO7P/c1-5-6-7-8-9-10-11-12-13-14-15-16-17-18-19-20-26(29)32-23-25(28)24-34-35(30,31)33-22-21-27(2,3)4/h25,28H,5-24H2,1-4H3
Instrument: waters xevo g2 TOF
Instrument type: ESI-TOF
Ms type: MS2
Ion mode: POSITIVE
Ionization: ESI
Collision energy: 0.6458333
Column name: Acquity CSHC18
Retention time: 7.256 min
Base peak: 524.37179
Precursor m/z: 524.37179
Precursor type: [M+H]+
m/z	relative intensity
86.0977	61
104.108	928
105.1113	56
111.5143	6
112.9924	11
120.5205	11
125.0008	24
129.5252	13
138.5306	3
146.9829	9
148.5331	32
149.0344	5
157.5386	21
162.982	13
166.0635	3
184.074	999
185.0771	61
186.0787	9
192.9578	9
237.9924	6
240.1003	16
258.1109	19
272.6584	2
273.1603	1
281.6639	3
290.133	1
323.2269	15
324.2299	3
341.3058	41
342.3087	10
447.2882	17
459.2187	6
487.2795	100
488.282	19
506.3234	118
507.3636	70
508.3641	12
513.8063	9
522.2682	4
524.3206	282
525.3748	163
