Mass spectrum: Ornithine; LC-ESI-ITFT; MS2; CE: 10;  [M+H]+
Name: Ornithine
Class: Organic acids and derivatives; Carboxylic acids and derivatives; Amino acids, peptides, and analogues
Formula: C5H12N2O2
Exact mass: 132.08988
SMILES: NCCC[C@H](N)C(O)=O
InChI: InChI=1S/C5H12N2O2/c6-3-1-2-4(7)5(8)9/h4H,1-3,6-7H2,(H,8,9)/t4-/m0/s1
Instrument: Thermo Scientific Q-Exactive Focus
Instrument type: LC-ESI-ITFT
Ms type: MS2
Ion mode: POSITIVE
Ionization: ESI
Collision energy: 10
Column name: Acquity CSHC18
Retention time: 0.348 min
Base peak: 133.09715
Precursor m/z: 133.09715
Precursor type: [M+H]+
m/z	relative intensity
70.0657	999
74.0242	11
87.0557	6
97.0764	2
98.0076	4
100.5103	1
115.0868	74
116.0344	1
116.0709	521
133.0972	26
