Mass spectrum: (-)-methyl jasmonate; LC-ESI-QTOF; MS2; CE: 15.00;  [M+H]+
Name: (-)-methyl jasmonate
Class: NA
Formula: C13H20O3
Exact mass: 224.1412
SMILES: CCC=CCC1C(CCC1=O)CC(=O)OC
InChI: InChI=1S/C13H20O3/c1-3-4-5-6-11-10(7-8-12(11)14)9-13(15)16-2/h4-5,10-11H,3,6-9H2,1-2H3
Instrument: Bruker MicrOTOF-Q
Instrument type: LC-ESI-QTOF
Ms type: MS2
Ion mode: POSITIVE
Ionization: ESI
Collision energy: 15.00
Column name: Acquity CSHC18
Retention time: NA
Base peak: 225.1485
Precursor m/z: 225.1485
Precursor type: [M+H]+
m/z	relative intensity
91.0497	40
93.0667	46
105.0662	48
107.0821	55
109.0658	56
119.0813	59
123.1126	70
131.0834	84
133.0991	84
134.1023	86
137.0574	102
147.1165	104
148.1231	125
149.0911	128
151.1106	135
152.1112	194
165.1276	199
169.0859	291
175.1109	338
176.1108	347
193.1213	912
194.1251	980
207.138	999
225.145	40
