Mass spectrum: N-ACETYLPROLINE; LC-ESI-QTOF; MS2; CE: 40;  [M+H]+
Name: N-ACETYLPROLINE
Class: NA
Formula: C7H11NO3
Exact mass: 157.07389
SMILES: [H][C@]1(CCCN1C(C)=O)C(O)=O
InChI: InChI=1S/C7H11NO3/c1-5(9)8-4-2-3-6(8)7(10)11/h6H,2-4H2,1H3,(H,10,11)/t6-/m0/s1
Instrument: Agilent 6530Â Q-TOF LC/MS
Instrument type: LC-ESI-QTOF
Ms type: MS2
Ion mode: POSITIVE
Ionization: ESI
Collision energy: 40
Column name: NA
Retention time: 0.200 min
Base peak: 158.08212
Precursor m/z: 158.08212
Precursor type: [M+H]+
Precursor intensity: 155.5
m/z	relative intensity
41.0471	45
42.0371	46
43.0539	51
44.0485	56
53.0392	78
68.066	122
70.3088	272
70.7782	698
70.8578	999
