Mass spectrum: CYTIDINE; LC-ESI-QTOF; MS2; CE: 10;  [M+H]+
Name: CYTIDINE
Class: NA
Formula: C9H13N3O5
Exact mass: 243.0855
SMILES: NC1=NC(=O)N(C=C1)[C@@H]1O[C@H](CO)[C@@H](O)[C@H]1O
InChI: InChI=1S/C9H13N3O5/c10-5-1-2-12(9(16)11-5)8-7(15)6(14)4(3-13)17-8/h1-2,4,6-8,13-15H,3H2,(H2,10,11,16)/t4-,6-,7-,8-/m1/s1
Instrument: Agilent 6530Â Q-TOF LC/MS
Instrument type: LC-ESI-QTOF
Ms type: MS2
Ion mode: POSITIVE
Ionization: ESI
Collision energy: 10
Column name: NA
Retention time: 0.200 min
Base peak: 244.09271
Precursor m/z: 244.09271
Precursor type: [M+H]+
Precursor intensity: 197.5
m/z	relative intensity
42.5164	1
43.8651	5
46.3366	9
48.5735	1
49.4165	5
50.6476	6
50.6724	1
51.0317	4
64.2827	4
64.3067	9
64.3427	1
65.0212	3
65.9444	5
73.3625	8
74.9241	2
79.1219	3
79.6373	2
88.204	4
89.5881	1
92.6916	2
93.8539	3
96.7915	4
96.8352	18
100.0704	35
101.445	3
102.1487	10
109.013	1
111.2065	2
111.5751	1
111.9757	4
112.0496	999
112.1624	11
112.2033	3
112.3613	8
112.4617	4
112.489	2
112.5892	17
112.6474	25
112.6851	7
112.7205	8
112.8236	2
112.8791	5
112.9268	5
113.0186	10
113.6238	4
116.5231	1
118.7268	5
119.6149	3
121.0544	8
121.2733	5
121.699	5
123.9503	7
124.0024	1
127.7608	5
130.0101	6
133.0886	1
138.4247	2
141.8524	12
142.5909	2
144.1235	4
147.9921	1
161.6527	1
161.8443	8
161.8786	5
167.795	13
186.4975	3
190.5838	1
191.2238	1
200.8161	14
211.8844	4
213.2452	5
235.6782	19
235.7574	1
243.1662	37
243.2892	2
244.07	5
244.4482	1
244.883	6
