Mass spectrum: ADENINE; LC-ESI-QFT; MS2; CE: 30eV;  [M+H]+
Name: ADENINE
Class: NA
Formula: C5H5N5
Exact mass: 135.05450
SMILES: NC1=NC=NC2=C1NC=N2
InChI: InChI=1S/C5H5N5/c6-4-3-5(9-1-7-3)10-2-8-4/h1-2H,(H3,6,7,8,9,10)
Instrument: Q-Exactive Orbitrap, Thermo Scientfic; Ultimate 3000 HPLC, Thermo Scientfic
Instrument type: LC-ESI-QFT
Ms type: MS2
Ion mode: POSITIVE
Ionization: ESI
Collision energy: 30eV
Column name: Acquity CSHC18
Retention time: 0.686 min
Base peak: 136.0618
Precursor m/z: 136.0618
Precursor type: [M+H]+
m/z	relative intensity
53.9538	14
62.3687	13
67.0298	26
70.831	15
75.5704	13
77.7165	16
92.0248	23
94.0406	172
109.0514	17
110.8408	16
114.9259	18
119.0355	589
136.022	173
137.0459	386
137.059	328
137.0652	999
137.0704	38
154.7944	16
