Mass spectrum: Flavone; LC-ESI-QTOF; MS2; CE: 15.00;  [M+H]+
Name: Flavone
Class: NA
Formula: C15H10O2
Exact mass: 222.0681
SMILES: C1=CC=C(C=C1)C2=CC(=O)C3=CC=CC=C3O2
InChI: InChI=1S/C15H10O2/c16-13-10-15(11-6-2-1-3-7-11)17-14-9-5-4-8-12(13)14/h1-10H
Instrument: Bruker MicrOTOF-Q
Instrument type: LC-ESI-QTOF
Ms type: MS2
Ion mode: POSITIVE
Ionization: ESI
Collision energy: 15.00
Column name: Acquity CSHC18
Retention time: NA
Base peak: 223.0754
Precursor m/z: 223.0754
Precursor type: [M+H]+
m/z	relative intensity
178.0779	28
223.0821	424
224.0796	999
