Mass spectrum: 3-Methoxytyramine; LC-ESI-ITFT; MS2; CE: 20;  [M+H]+
Name: 3-Methoxytyramine
Class: Benzenoids; Phenols; Methoxyphenols
Formula: C9H13NO2
Exact mass: 167.09463
SMILES: COC1=C(O)C=CC(CCN)=C1
InChI: InChI=1S/C9H13NO2/c1-12-9-6-7(4-5-10)2-3-8(9)11/h2-3,6,11H,4-5,10H2,1H3
Instrument: Thermo Scientific Q-Exactive Focus
Instrument type: LC-ESI-ITFT
Ms type: MS2
Ion mode: POSITIVE
Ionization: ESI
Collision energy: 20
Column name: Acquity CSHC18
Retention time: 0.630 min
Base peak: 168.10191
Precursor m/z: 168.10191
Precursor type: [M+H]+
m/z	relative intensity
65.0391	33
79.0547	12
91.0547	999
95.0495	82
108.0572	6
119.0494	577
123.0806	8
136.052	109
137.0597	30
151.0754	358
