Mass spectrum: ARGININE; LC-ESI-QFT; MS2; CE: 30eV;  [M+H]+
Name: ARGININE
Class: NA
Formula: C6H14N4O2
Exact mass: 174.11168
SMILES: N[C@@H](CCCN=C(N)N)C(O)=O
InChI: InChI=1S/C6H14N4O2/c7-4(5(11)12)2-1-3-10-6(8)9/h4H,1-3,7H2,(H,11,12)(H4,8,9,10)/t4-/m0/s1
Instrument: Q-Exactive Orbitrap, Thermo Scientfic; Ultimate 3000 HPLC, Thermo Scientfic
Instrument type: LC-ESI-QFT
Ms type: MS2
Ion mode: POSITIVE
Ionization: ESI
Collision energy: 30eV
Column name: Acquity CSHC18
Retention time: 0.568 min
Base peak: 175.1190
Precursor m/z: 175.1190
Precursor type: [M+H]+
Precursor intensity: 109
m/z	relative intensity
56.4999	8
56.9213	9
61.0309	9
61.2455	8
61.6807	8
67.4604	9
67.8586	10
71.0692	24
72.0815	190
89.2438	10
95.7721	9
97.0767	15
98.0608	14
112.0874	243
113.0714	20
114.1031	94
115.0872	72
117.0745	46
124.1064	9
130.0979	817
141.0663	15
157.1087	219
158.0928	999
158.118	19
159.0963	13
164.4382	10
176.1162	18
176.1226	109
