Mass spectrum: 3-HYDROXYANTHRANILATE; LC-ESI-QTOF; MS2; CE: 20;  [M-H]-
Name: 3-HYDROXYANTHRANILATE
Class: NA
Formula: C7H7NO3
Exact mass: 153.04259
SMILES: NC1=C(O)C=CC=C1C(O)=O
InChI: InChI=1S/C7H7NO3/c8-6-4(7(10)11)2-1-3-5(6)9/h1-3,9H,8H2,(H,10,11)
Instrument: Agilent 6530Â Q-TOF LC/MS
Instrument type: LC-ESI-QTOF
Ms type: MS2
Ion mode: NEGATIVE
Ionization: ESI
Collision energy: 20
Column name: NA
Retention time: 0.200 min
Base peak: 152.03349
Precursor m/z: 152.03349
Precursor type: [M-H]-
Precursor intensity: 163
m/z	relative intensity
41.0038	145
65.0189	253
91.032	510
107.0585	843
108.0726	999
