Mass spectrum: Trigonelline; LC-ESI-QTOF; MS2; CE: 15.00;  [M+H]+
Name: Trigonelline
Class: NA
Formula: C7H7NO2
Exact mass: 137.0477
SMILES: C[N+]1=CC=CC(=C1)C(=O)[O-]
InChI: InChI=1S/C7H7NO2/c1-8-4-2-3-6(5-8)7(9)10/h2-5H,1H3
Instrument: Bruker MicrOTOF-Q
Instrument type: LC-ESI-QTOF
Ms type: MS2
Ion mode: POSITIVE
Ionization: ESI
Collision energy: 15.00
Column name: Acquity CSHC18
Retention time: NA
Base peak: 138.0550
Precursor m/z: 138.0550
Precursor type: [M+H]+
m/z	relative intensity
45.85	1
78.03	1
92.05	46
92.12	1
92.15	1
93.05	11
94.06	94
95.07	8
97.63	1
110.06	5
114.16	1
118.39	1
120.04	6
122.02	2
124.03	1
135.67	1
136.04	26
137.04	1
137.34	1
137.38	1
137.56	1
137.98	3
138.05	999
138.18	1
138.28	2
138.33	1
138.4	2
138.51	1
138.59	1
138.68	1
138.73	1
138.88	1
138.96	1
139.06	77
139.31	1
140.06	3
140.46	1
140.7	1
142.89	1
154.05	1
155.05	1
218.19	1
237.54	1
239.04	1
488.01	1
