Mass spectrum: 3,4-Dihydroxyhydrocinnamic acid; ESI-TOF; MS2; CE: 0.6458333;  [M+H]+
Name: 3,4-Dihydroxyhydrocinnamic acid
Class: NA
Formula: C9H10O4
Exact mass: 182.05791
SMILES: OC(=O)CCC1=CC=C(O)C(O)=C1
InChI: InChI=1S/C9H10O4/c10-7-3-1-6(5-8(7)11)2-4-9(12)13/h1,3,5,10-11H,2,4H2,(H,12,13)
Instrument: waters xevo g2 TOF
Instrument type: ESI-TOF
Ms type: MS2
Ion mode: POSITIVE
Ionization: ESI
Collision energy: 0.6458333
Column name: Acquity CSHC18
Retention time: 2.249 min
Base peak: 183.06591
Precursor m/z: 183.06591
Precursor type: [M+H]+
m/z	relative intensity
72.9391	4
85.0664	174
102.1325	26
104.9636	4
114.951	45
116.9593	178
121.0085	4
123.0137	137
133.9669	25
137.9836	90
138.9775	123
149.0034	4
154.0088	33
154.9797	35
158.1913	4
159.9821	181
160.9786	326
171.0624	66
183.0104	124
201.1112	4
216.124	4
220.1163	4
222.1144	4
227.0366	416
227.9772	4
240.093	288
241.0642	28
246.0632	4
259.0757	4
259.9975	61
271.1535	4
273.0411	999
274.0427	106
297.1869	4
307.0016	52
315.0366	47
336.0407	4
372.9871	83
377.0879	4
387.0048	4
400.983	4
459.2805	4
503.3075	4
517.1579	4
526.2944	4
534.1505	4
547.3339	4
613.3417	195
