Mass spectrum: rhamnetin; LC-ESI-ITFT; MS2; CE: 0.3;  [M-H]-
Name: rhamnetin
Class: flavonols
Formula: C16H12O7
Exact mass: 316.0583
SMILES: COC1=CC(=C2C(=C1)OC(=C(C2=O)O)C3=CC(=C(C=C3)O)O)O
InChI: InChI=1S/C16H12O7/c1-22-8-5-11(19)13-12(6-8)23-16(15(21)14(13)20)7-2-3-9(17)10(18)4-7/h2-6,17-19,21H,1H3
Instrument: LTQ-Orbitrap XL hybrid mass spectrometer (Thermo Scientific)
Instrument type: LC-ESI-ITFT
Ms type: MS2
Ion mode: NEGATIVE
Ionization: ESI
Collision energy: 0.3
Column name: Acquity CSHC18
Retention time: 10.796 min
Base peak: 315.0510
Precursor m/z: 315.0510
Precursor type: [M-H]-
Precursor intensity: 23862520
m/z	relative intensity
75.1412	5
76.8502	4
76.971	7
77.4834	4
78.8879	5
79.076	3
86.0131	3
88.5909	4
91.1133	4
92.2083	3
99.2442	4
105.4449	3
120.9417	3
121.0302	23
149.025	13
149.9963	4
163.1904	4
163.4933	4
163.7969	6
164.1014	11
164.4065	12
164.5289	6
164.96	4
165.0114	4
165.0127	8
165.0163	7
165.0199	999
165.3279	4
172.255	3
175.004	5
193.0147	405
194.512	2
196.1076	3
196.1112	8
207.0303	78
212.048	8
224.048	4
225.0559	5
225.5733	2
228.0433	12
243.0665	14
253.0508	12
256.038	73
269.0455	8
271.0616	38
287.0564	173
287.2453	11
287.2614	4
287.2749	5
297.0404	7
298.5268	2
300.0278	347
301.0298	4
312.6319	3
313.4355	3
313.6239	3
314.4305	4
315.0513	538
315.0612	2
