Mass spectrum: Guanosine; LC-ESI-ITFT; MS2; CE: 100;  [M-H]-
Name: Guanosine
Class: Nucleosides, nucleotides, and analogues; Purine nucleosides
Formula: C10H13N5O5
Exact mass: 283.09167
SMILES: NC1=NC2=C(N=CN2[C@@H]2O[C@H](CO)[C@@H](O)[C@H]2O)C(=O)N1
InChI: InChI=1S/C10H13N5O5/c11-10-13-7-4(8(19)14-10)12-2-15(7)9-6(18)5(17)3(1-16)20-9/h2-3,5-6,9,16-18H,1H2,(H3,11,13,14,19)/t3-,5-,6-,9-/m1/s1
Instrument: Thermo Scientific Q-Exactive Focus
Instrument type: LC-ESI-ITFT
Ms type: MS2
Ion mode: NEGATIVE
Ionization: ESI
Collision energy: 100
Column name: Acquity CSHC18
Retention time: 2.588 min
Base peak: 282.08438
Precursor m/z: 282.08438
Precursor type: [M-H]-
m/z	relative intensity
65.0133	14
65.9973	265
66.0085	999
67.4343	4
86.7554	4
100.2678	4
101.6456	5
102.4157	4
129.8749	4
247.0342	4
