Mass spectrum: Quinolinic acid; LC-ESI-ITFT; MS2; CE: 60;  [M+H]+
Name: Quinolinic acid
Class: Organoheterocyclic compounds; Pyridines and derivatives; Pyridinecarboxylic acids and derivatives
Formula: C7H5NO4
Exact mass: 167.02186
SMILES: OC(=O)C1=CC=CN=C1C(O)=O
InChI: InChI=1S/C7H5NO4/c9-6(10)4-2-1-3-8-5(4)7(11)12/h1-3H,(H,9,10)(H,11,12)
Instrument: Thermo Scientific Q-Exactive Focus
Instrument type: LC-ESI-ITFT
Ms type: MS2
Ion mode: POSITIVE
Ionization: ESI
Collision energy: 60
Column name: Acquity CSHC18
Retention time: 1.751 min
Base peak: 168.02913
Precursor m/z: 168.02913
Precursor type: [M+H]+
m/z	relative intensity
50.0157	70
51.0236	184
52.0188	999
53.0028	88
53.0392	33
53.998	282
68.05	31
76.0187	17
78.0343	72
96.0448	685
