Mass spectrum: L-threo-dihydrosphingosine (d18:0); ESI-TOF; MS2; CE: 6.0000000;  [M+H]+
Name: L-threo-dihydrosphingosine (d18:0)
Class: NA
Formula: C18H39NO2
Exact mass: 301.29808
SMILES: [H]OC([H])([H])C([H])(N([H])[H])C([H])(O[H])C([H])([H])C([H])([H])C([H])([H])C([H])([H])C([H])([H])C([H])([H])C([H])([H])C([H])([H])C([H])([H])C([H])([H])C([H])([H])C([H])([H])C([H])([H])C([H])([H])C([H])([H])[H]
InChI: InChI=1S/C18H39NO2/c1-2-3-4-5-6-7-8-9-10-11-12-13-14-15-18(21)17(19)16-20/h17-18,20-21H,2-16,19H2,1H3
Instrument: waters xevo g2 TOF
Instrument type: ESI-TOF
Ms type: MS2
Ion mode: POSITIVE
Ionization: ESI
Collision energy: 6.0000000
Column name: Acquity CSHC18
Retention time: 4.318 min
Base peak: 302.30608
Precursor m/z: 302.30608
Precursor type: [M+H]+
m/z	relative intensity
81.0708	1
95.0866	1
96.9615	1
123.1179	1
240.27	3
249.2559	1
254.2851	9
266.2849	34
267.2852	9
268.3006	1
273.2997	2
282.2798	71
283.2837	15
285.2992	205
286.3022	21
300.2906	11
301.2932	2
302.7621	999
