Mass spectrum: Luteolin; LC-ESI-QFT; MS2; CE: NCE_15_30_78;  [M-H]-
Name: Luteolin
Class: NA
Formula: C15H10O6
Exact mass: 286.0477
SMILES: C1=CC(=C(C=C1C2=CC(=O)C3=C(C=C(C=C3O2)O)O)O)O
InChI: InChI=1S/C15H10O6/c16-8-4-11(19)15-12(20)6-13(21-14(15)5-8)7-1-2-9(17)10(18)3-7/h1-6,16-19H
Instrument: Thermo_Qexactive_Plus
Instrument type: LC-ESI-QFT
Ms type: MS2
Ion mode: NEGATIVE
Ionization: ESI
Collision energy: NCE_15_30_78
Column name: Acquity CSHC18
Retention time: 6.101 min
Base peak: 285.0405
Precursor m/z: 285.0405
Precursor type: [M-H]-
Precursor intensity: 858640400
m/z	relative intensity
65.0022	3
69.074	3
83.2726	3
107.0128	3
126.676	3
130.0533	3
132.0216	4
133.0297	4
134.032	4
147.0076	4
149.0238	4
151.0028	4
162.3477	5
175.0394	5
176.0422	5
187.0389	6
197.0604	6
198.0322	6
199.0393	6
201.0194	7
213.0545	9
215.0356	12
217.0505	15
223.0393	17
229.0522	18
241.0506	19
243.0302	26
257.0455	27
267.0292	40
274.4007	43
285.0363	999
