Mass spectrum: tetranor-PGEM; ESI-TOF; MS2; CE: 6.0000000;  [M+H]+
Name: tetranor-PGEM
Class: NA
Formula: C16H24O7
Exact mass: 328.15220
SMILES: O[C@H]1[C@H](CCC(CCCCC(O)=O)=O)[C@@H](CCC(O)=O)C(C1)=O
InChI: InChI=1S/C16H24O7/c17-10(3-1-2-4-15(20)21)5-6-11-12(7-8-16(22)23)14(19)9-13(11)18/h11-13,18H,1-9H2,(H,20,21)(H,22,23)/t11-,12-,13-/m1/s1
Instrument: waters xevo g2 TOF
Instrument type: ESI-TOF
Ms type: MS2
Ion mode: POSITIVE
Ionization: ESI
Collision energy: 6.0000000
Column name: Acquity CSHC18
Retention time: 1.913 min
Base peak: 329.16020
Precursor m/z: 329.16020
Precursor type: [M+H]+
m/z	relative intensity
91.0537	1
111.0446	1
113.965	79
121.0657	1
129.07	1
131.9518	27
145.1008	1
149.0606	1
163.0761	1
165.0905	12
167.0855	1
175.0528	122
175.5546	11
185.098	1
191.0707	1
203.1455	1
211.1128	1
229.123	1
233.1157	1
247.1356	13
257.117	111
275.1281	321
276.1317	47
293.1391	999
294.1408	133
295.1452	11
311.1492	355
312.1552	32
318.0558	1
336.0745	1
347.0579	1
348.1356	22
351.1413	656
352.1451	65
364.0623	1
365.0685	1
366.0712	7
367.1065	1
378.0695	6
380.0737	10
382.0706	295
383.0794	416
384.0818	65
385.0763	70
386.087	5
387.0786	25
481.2617	5
693.2138	6
695.2602	28
696.2638	7
710.2205	38
711.2245	65
712.2391	17
713.2264	16
714.2269	6
