Mass spectrum: ASPARAGINE; LC-ESI-QFT; MS2; CE: 30eV;  [M+H]+
Name: ASPARAGINE
Class: NA
Formula: C4H8N2O3
Exact mass: 132.05349
SMILES: N[C@@H](CC(N)=O)C(O)=O
InChI: InChI=1S/C4H8N2O3/c5-2(4(8)9)1-3(6)7/h2H,1,5H2,(H2,6,7)(H,8,9)/t2-/m0/s1
Instrument: Q-Exactive Orbitrap, Thermo Scientfic; Ultimate 3000 HPLC, Thermo Scientfic
Instrument type: LC-ESI-QFT
Ms type: MS2
Ion mode: POSITIVE
Ionization: ESI
Collision energy: 30eV
Column name: Acquity CSHC18
Retention time: 0.535 min
Base peak: 133.0608
Precursor m/z: 133.0608
Precursor type: [M+H]+
Precursor intensity: 101
m/z	relative intensity
51.588	1
53.6478	1
60.0452	8
67.0412	1
70.0295	39
71.0329	1
71.3615	1
74.0244	999
75.0214	1
75.0277	6
77.9964	1
86.9933	1
87.0559	657
88.0399	177
88.0593	7
89.4427	1
95.0234	1
98.0243	7
99.0082	8
105.0703	2
114.4328	1
116.0347	176
117.0382	2
124.3626	1
133.0611	200
133.1017	4
134.0644	4
