Mass spectrum: Glyoxylic acid; LC-ESI-ITFT; MS2; CE: 40;  [M-H]-
Name: Glyoxylic acid
Class: Organic acids and derivatives; Carboxylic acids and derivatives; Carboxylic acids
Formula: C2H2O3
Exact mass: 74.00039
SMILES: OC(=O)C=O
InChI: InChI=1S/C2H2O3/c3-1-2(4)5/h1H,(H,4,5)
Instrument: Thermo Scientific Q-Exactive Focus
Instrument type: LC-ESI-ITFT
Ms type: MS2
Ion mode: NEGATIVE
Ionization: ESI
Collision energy: 40
Column name: Acquity CSHC18
Retention time: 1.477 min
Base peak: 72.99312
Precursor m/z: 72.99312
Precursor type: [M-H]-
m/z	relative intensity
50.9008	974
51.5774	886
56.5385	928
63.4553	999
64.4601	911
68.4271	928
68.5999	944
72.1339	892
72.3807	912
79.6472	908
