Mass spectrum: GLUTARYLCARNITINE; LC-ESI-QFT; MS2; CE: 30eV;  [M+H]+
Name: GLUTARYLCARNITINE
Class: NA
Formula: C12H21NO6
Exact mass: 275.13689
SMILES: C[N+](C)(C)C[C@H](CC([O-])=O)OC(=O)CCCC(O)=O
InChI: InChI=1S/C12H21NO6/c1-13(2,3)8-9(7-11(16)17)19-12(18)6-4-5-10(14)15/h9H,4-8H2,1-3H3,(H-,14,15,16,17)/t9-/m0/s1
Instrument: Q-Exactive Orbitrap, Thermo Scientfic; Ultimate 3000 HPLC, Thermo Scientfic
Instrument type: LC-ESI-QFT
Ms type: MS2
Ion mode: POSITIVE
Ionization: ESI
Collision energy: 30eV
Column name: Acquity CSHC18
Retention time: 1.103 min
Base peak: 276.1442
Precursor m/z: 276.1442
Precursor type: [M+H]+
Precursor intensity: 116
m/z	relative intensity
57.0343	73
62.7086	14
64.4636	14
64.7051	15
64.7663	13
73.7228	17
78.1558	15
80.4053	14
84.6127	15
86.0324	149
86.2803	17
87.0447	712
96.18	14
103.0395	999
108.1758	15
116.0428	63
121.1446	17
121.6072	15
133.0499	343
142.4247	18
144.1022	769
148.5251	20
154.656	16
188.7172	19
189.6388	16
200.064	41
201.5519	18
204.4737	19
218.0746	155
221.8986	17
231.0034	21
240.0253	17
269.6332	20
273.8896	17
277.1482	422
296.8053	19
