Mass spectrum: Pseudoginsenoside F11; LC-ESI-QFT; MS2; CE: 15,30,45 (NCE);  [M+H]+
Name: Pseudoginsenoside F11
Class: NA
Formula: C42H72O14
Exact mass: 800.4922
SMILES: CC1OC(OC2C(O)C(O)C(CO)OC2OC2CC3(C)C(CC(O)C4C(CCC34C)C3(C)CCC(O3)C(C)(C)O)C3(C)CCC(O)C(C)(C)C23)C(O)C(O)C1O
InChI: InChI=1S/C42H72O14/c1-19-28(46)30(48)32(50)35(52-19)55-33-31(49)29(47)23(18-43)54-36(33)53-22-17-41(8)24(39(6)13-11-25(45)37(2,3)34(22)39)16-21(44)27-20(10-14-40(27,41)7)42(9)15-12-26(56-42)38(4,5)51/h19-36,43-51H,10-18H2,1-9H3
Instrument: QE Focus, Thermo Scientfic; UPLC I-Class, Waters
Instrument type: LC-ESI-QFT
Ms type: MS2
Ion mode: POSITIVE
Ionization: ESI
Collision energy: 15,30,45 (NCE)
Column name: Acquity CSHC18
Retention time: 2.620 min
Base peak: 801.4990
Precursor m/z: 801.4990
Precursor type: [M+H]+
Precursor intensity: 53645600
m/z	relative intensity
57.0525	20
69.0524	35
73.0474	64
81.0523	67
83.068	74
84.0883	74
85.0472	83
97.0653	99
99.0706	106
111.0628	119
123.0988	141
127.0755	168
133.0964	206
135.0987	224
145.0753	230
147.091	268
149.1143	285
159.1073	325
163.1065	340
191.1616	341
203.1614	521
217.1775	999
