Mass spectrum: 3-AMINO-4-HYDROXYBENZOATE; LC-ESI-QTOF; MS2; CE: 20;  [M+H]+
Name: 3-AMINO-4-HYDROXYBENZOATE
Class: NA
Formula: C7H7NO3
Exact mass: 153.04259
SMILES: C1=CC(=C(C=C1C(=O)O)N)O
InChI: InChI=1S/C7H7NO3/c8-5-3-4(7(10)11)1-2-6(5)9/h1-3,9H,8H2,(H,10,11)
Instrument: Agilent 6530Â Q-TOF LC/MS
Instrument type: LC-ESI-QTOF
Ms type: MS2
Ion mode: POSITIVE
Ionization: ESI
Collision energy: 20
Column name: NA
Retention time: 0.200 min
Base peak: 154.04937
Precursor m/z: 154.04937
Precursor type: [M+H]+
Precursor intensity: 47.5
m/z	relative intensity
40.016	51
53.0595	61
63.0364	68
65.059	70
66.038	116
68.0322	140
80.0808	187
81.0478	188
90.0563	259
92.0633	275
93.0502	283
106.0492	359
108.0773	502
109.0685	518
110.0704	526
118.0288	545
136.0596	948
154.0811	999
