Mass spectrum: Trans-Resveratrol; LC-ESI-QTOF; MS2; CE: 15;  [M-H]-
Name: Trans-Resveratrol
Class: NA
Formula: C14H12O3
Exact mass: 228.0786
SMILES: C1=CC(=CC=C1C=CC2=CC(=CC(=C2)O)O)O
InChI: InChI=1S/C14H12O3/c15-12-5-3-10(4-6-12)1-2-11-7-13(16)9-14(17)8-11/h1-9,15-17H
Instrument: Bruker MicrOTOF-Q
Instrument type: LC-ESI-QTOF
Ms type: MS2
Ion mode: NEGATIVE
Ionization: ESI
Collision energy: 15
Column name: Acquity CSHC18
Retention time: NA
Base peak: 227.0714
Precursor m/z: 227.0714
Precursor type: [M-H]-
m/z	relative intensity
107.0503	14
115.0567	11
117.0355	50
119.0505	75
120.0529	6
121.0304	5
133.0255	3
141.0713	124
142.0752	12
142.5054	4
143.1683	512
144.0532	93
145.0296	68
146.035	4
153.0735	6
155.0849	15
156.0583	13
157.0661	171
158.0687	17
159.081	254
160.0841	22
161.0653	4
165.073	11
167.0512	23
168.057	19
169.0552	4
170.0382	13
175.0788	5
180.0584	26
181.0656	154
182.0731	259
183.0144	285
184.3289	19
185.5891	413
197.0612	12
198.0639	5
199.075	45
200.0813	3
208.0542	4
209.0601	41
210.0656	10
211.0398	11
212.0476	56
213.0525	6
225.0552	143
226.1932	18
227.7053	999
229.0767	15
