Mass spectrum: Scopolin; LC-ESI-QTOF; MS2; CE: 50eV;  [M+H]+
Name: Scopolin
Class: Coumarin
Formula: C16H18O9
Exact mass: 354.0951
SMILES: COC1=C(C=C2C(=C1)C=CC(=O)O2)OC3C(C(C(C(O3)CO)O)O)O
InChI: InChI=1S/C16H18O9/c1-22-9-4-7-2-3-12(18)23-8(7)5-10(9)24-16-15(21)14(20)13(19)11(6-17)25-16/h2-5,11,13-17,19-21H,6H2,1H3
Instrument: TIMS-TOF Pro, Bruker Daltonik; Elute UHPLC System, Bruker Daltonik
Instrument type: LC-ESI-QTOF
Ms type: MS2
Ion mode: POSITIVE
Ionization: ESI
Collision energy: 50eV
Column name: Acquity CSHC18
Retention time: 4.058 min
Base peak: 355.1020
Precursor m/z: 355.1020
Precursor type: [M+H]+
Precursor intensity: 11419.88
m/z	relative intensity
57.3628	9
79.0517	14
85.029	14
94.0414	48
107.7851	15
119.7437	21
122.0359	84
133.0111	40
133.0275	922
134.0304	58
134.9541	12
137.0597	216
138.7796	19
146.1379	17
149.0349	25
150.0302	95
161.8161	17
165.0553	94
168.3698	14
178.0134	42
178.0261	999
179.0289	62
187.5777	17
192.9768	19
193.0165	54
193.0473	207
193.2745	14
193.4444	111
194.023	26
194.0539	826
195.052	62
196.0615	13
