Mass spectrum: Argininosuccinic acid; ESI-TOF; MS2; CE: 0.6458333;  [M+H]+
Name: Argininosuccinic acid
Class: NA
Formula: C10H18N4O6
Exact mass: 290.12263
SMILES: NC(CCCNC(=N)NC(CC(O)=O)C(O)=O)C(O)=O
InChI: InChI=1S/C10H18N4O6/c11-5(8(17)18)2-1-3-13-10(12)14-6(9(19)20)4-7(15)16/h5-6H,1-4,11H2,(H,15,16)(H,17,18)(H,19,20)(H3,12,13,14)
Instrument: waters xevo g2 TOF
Instrument type: ESI-TOF
Ms type: MS2
Ion mode: POSITIVE
Ionization: ESI
Collision energy: 0.6458333
Column name: Acquity CSHC18
Retention time: 0.522 min
Base peak: 291.13063
Precursor m/z: 291.13063
Precursor type: [M+H]+
m/z	relative intensity
56.9434	5
70.0664	750
71.0698	30
72.0816	22
88.0398	333
90.9771	15
95.9733	9
97.0132	11
98.0358	131
98.9627	60
100.9903	15
101.9409	15
112.0877	113
113.0719	127
114.0558	23
115.0873	296
116.0715	999
117.0749	53
123.1182	3
130.0627	11
131.0454	127
133.0977	183
134.0455	182
140.0571	62
141.0663	23
141.9594	16
145.0181	21
158.0567	326
159.0772	313
164.0826	13
166.0992	3
173.8687	7
176.0671	446
193.06	3
196.0679	35
210.0875	92
211.0728	11
226.952	15
228.0981	183
246.109	16
247.1149	13
256.0939	8
273.1198	129
274.1121	24
291.1304	603
292.133	72
