Mass spectrum: Benzamide; LC-ESI-ITFT; MS2; CE: 30;  [M+H]+
Name: Benzamide
Class: Benzenoids; Benzene and substituted derivatives; Benzoic acids and derivatives
Formula: C7H7NO
Exact mass: 121.05276
SMILES: NC(=O)C1=CC=CC=C1
InChI: InChI=1S/C7H7NO/c8-7(9)6-4-2-1-3-5-6/h1-5H,(H2,8,9)
Instrument: Thermo Scientific Q-Exactive Focus
Instrument type: LC-ESI-ITFT
Ms type: MS2
Ion mode: POSITIVE
Ionization: ESI
Collision energy: 30
Column name: Acquity CSHC18
Retention time: 0.639 min
Base peak: 122.06004
Precursor m/z: 122.06004
Precursor type: [M+H]+
m/z	relative intensity
50.0157	64
51.0235	281
53.0391	464
56.9653	100
77.039	227
79.0546	202
81.0338	32
95.0494	999
105.0336	102
105.0449	232
