Mass spectrum: 1,3,8-Trihydroxy-6-methylanthraquinone; LC-ESI-QTOF; MS2; CE: 15.00;  [M+H]+
Name: 1,3,8-Trihydroxy-6-methylanthraquinone
Class: NA
Formula: C15H10O5
Exact mass: 270.0528
SMILES: CC1=CC2=C(C(=C1)O)C(=O)C3=C(C2=O)C=C(C=C3O)O
InChI: InChI=1S/C15H10O5/c1-6-2-8-12(10(17)3-6)15(20)13-9(14(8)19)4-7(16)5-11(13)18/h2-5,16-18H,1H3
Instrument: Bruker MicrOTOF-Q
Instrument type: LC-ESI-QTOF
Ms type: MS2
Ion mode: POSITIVE
Ionization: ESI
Collision energy: 15.00
Column name: Acquity CSHC18
Retention time: NA
Base peak: 271.0601
Precursor m/z: 271.0601
Precursor type: [M+H]+
m/z	relative intensity
229.0491	38
271.0595	151
272.0622	999
