Mass spectrum: 2-Hydroxy-3-methylbutyric acid; LC-ESI-QTOF; MS2; CE: -10, -35, -60V;  [M-H]-
Name: 2-Hydroxy-3-methylbutyric acid
Class: NA
Formula: C5H10O3
Exact mass: 118.0630
SMILES: CC(C)C(C(=O)O)O
InChI: InChI=1S/C5H10O3/c1-3(2)4(6)5(7)8/h3-4,6H,1-2H3,(H,7,8)
Instrument: TripleToF 5600; Sciex
Instrument type: LC-ESI-QTOF
Ms type: MS2
Ion mode: NEGATIVE
Ionization: ESI
Collision energy: -10, -35, -60V
Column name: Acquity CSHC18
Retention time: 7.038 min
Base peak: 117.0561
Precursor m/z: 117.0561
Precursor type: [M-H]-
Precursor intensity: 216346.9
m/z	relative intensity
71.0511	520
115.0478	17
117.0551	999
