Mass spectrum: L-Glutamine; LC-ESI-ITFT; MS2; CE: 100;  [M+H]+
Name: L-Glutamine
Class: Organic acids and derivatives; Carboxylic acids and derivatives; Amino acids, peptides, and analogues
Formula: C5H10N2O3
Exact mass: 146.06914
SMILES: N[C@@H](CCC(N)=O)C(O)=O
InChI: InChI=1S/C5H10N2O3/c6-3(5(9)10)1-2-4(7)8/h3H,1-2,6H2,(H2,7,8)(H,9,10)/t3-/m0/s1
Instrument: Thermo Scientific Q-Exactive Focus
Instrument type: LC-ESI-ITFT
Ms type: MS2
Ion mode: POSITIVE
Ionization: ESI
Collision energy: 100
Column name: Acquity CSHC18
Retention time: 2.420 min
Base peak: 147.07642
Precursor m/z: 147.07642
Precursor type: [M+H]+
m/z	relative intensity
64.4486	609
64.9278	999
77.5234	586
85.0107	703
91.1061	606
93.598	854
114.3065	661
114.3961	615
119.54	588
157.3671	642
