Mass spectrum: 11-deoxy Prostaglandin F2-alpha; ESI-TOF; MS2; CE: 0.6458333;  [M+H]+
Name: 11-deoxy Prostaglandin F2-alpha
Class: NA
Formula: C20H34O4
Exact mass: 338.24571
SMILES: O[C@@H]1[C@H](C/C=C\CCCC(O)=O)[C@@H](/C=C/[C@@H](O)CCCCC)CC1
InChI: InChI=1S/C20H34O4/c1-2-3-6-9-17(21)14-12-16-13-15-19(22)18(16)10-7-4-5-8-11-20(23)24/h4,7,12,14,16-19,21-22H,2-3,5-6,8-11,13,15H2,1H3,(H,23,24)/b7-4-,14-12+/t16-,17-,18+,19-/m0/s1
Instrument: waters xevo g2 TOF
Instrument type: ESI-TOF
Ms type: MS2
Ion mode: POSITIVE
Ionization: ESI
Collision energy: 0.6458333
Column name: Acquity CSHC18
Retention time: 4.013 min
Base peak: 339.25371
Precursor m/z: 339.25371
Precursor type: [M+H]+
m/z	relative intensity
93.0708	132
119.0865	316
121.1009	60
131.0862	561
132.0909	66
133.1023	163
147.1185	74
149.1327	22
156.0897	13
157.1014	201
158.1044	32
159.1173	325
163.1467	19
174.1395	9
175.1477	122
183.1173	272
187.1126	556
191.1448	39
202.1298	18
203.1793	1
205.1211	39
207.1261	1
209.118	22
211.1477	28
219.1365	40
221.1558	1
227.0525	24
237.1084	1
241.1954	47
243.2089	129
244.2139	20
247.168	16
257.1889	60
258.1941	1
267.2107	247
268.2132	1
285.1891	541
286.2243	189
287.2297	1
300.165	1
303.2322	624
304.2357	94
305.2263	1
321.2423	1
322.2458	1
323.2492	1
325.1981	22
327.2496	26
341.1793	238
343.2238	599
344.2217	51
345.2611	1
355.2394	1
357.1514	354
358.1534	45
359.2004	999
360.1997	169
361.1911	804
362.239	361
363.2406	1
374.1553	344
375.1454	442
376.1644	91
377.1997	239
378.1838	17
383.2166	253
384.2188	43
393.1699	14
395.1731	63
411.3246	1
415.3146	1
439.2321	1
455.2161	1
569.434	7
605.4556	115
606.4587	45
623.4667	86
624.4683	37
625.4689	1
629.4148	30
641.472	1
642.4825	1
647.4299	22
663.4483	25
664.4381	9
665.4295	13
679.4218	263
680.4231	96
686.4351	1
690.3883	36
691.4162	19
694.3885	51
695.3909	128
696.399	45
697.4242	232
699.4699	1
700.4783	1
701.475	1
709.4588	8
712.3992	1
713.4093	7
715.4424	665
716.4471	282
717.4422	63
721.4631	1
723.4671	1
726.4239	1
729.4244	1
730.416	1
731.4175	1
732.4218	1
733.4198	1
734.4263	1
735.4141	1
736.4166	1
737.4226	1
753.4047	4
1053.6945	1
1054.6953	1
1055.7018	1
1056.6893	1
1091.6236	17
1106.5979	1
1107.6236	1
1108.6117	1
1109.6093	16
1110.6106	8
1112.6106	23
1113.6131	1
1122.5899	1
1123.5863	7
