Mass spectrum: 1a,1b-dihomo Prostaglandin F2-alpha; ESI-TOF; MS2; CE: 6.0000000;  [M+H]+
Name: 1a,1b-dihomo Prostaglandin F2-alpha
Class: NA
Formula: C22H38O5
Exact mass: 382.27192
SMILES: O[C@@H]1[C@H](C/C=C\CCCCCC(O)=O)[C@@H](/C=C/[C@@H](O)CCCCC)[C@H](O)C1
InChI: InChI=1S/C22H38O5/c1-2-3-8-11-17(23)14-15-19-18(20(24)16-21(19)25)12-9-6-4-5-7-10-13-22(26)27/h6,9,14-15,17-21,23-25H,2-5,7-8,10-13,16H2,1H3,(H,26,27)/b9-6-,15-14+/t17-,18+,19+,20-,21+/m0/s1
Instrument: waters xevo g2 TOF
Instrument type: ESI-TOF
Ms type: MS2
Ion mode: POSITIVE
Ionization: ESI
Collision energy: 6.0000000
Column name: Acquity CSHC18
Retention time: 4.087 min
Base peak: 383.27992
Precursor m/z: 383.27992
Precursor type: [M+H]+
m/z	relative intensity
117.0712	2
145.101	4
159.1168	2
186.125	6
187.1484	19
203.1814	15
213.1468	6
215.144	3
227.1592	8
229.1593	3
231.1394	4
245.1539	21
251.2023	10
267.2096	12
275.2341	5
285.2196	73
286.2263	14
291.2351	29
292.238	5
293.2462	159
301.2513	5
303.2302	63
304.2362	12
305.2465	9
311.2362	71
312.2391	17
319.2616	22
321.2426	19
329.2476	999
330.2499	259
331.2612	75
332.2636	11
345.2434	22
346.2009	9
347.2577	870
348.261	207
349.2665	27
359.1891	13
360.1939	2
361.2696	9
363.2539	19
375.1621	25
376.1631	6
379.1481	10
381.2665	5
384.2423	36
