Mass spectrum: OLEOYL-GLYCEROL; LC-ESI-QFT; MS2; CE: 30eV;  [M+H]+
Name: OLEOYL-GLYCEROL
Class: NA
Formula: C21H40O4
Exact mass: 356.29266
SMILES: CCCCCCCCC=CCCCCCCCC(=O)OCC(CO)O
InChI: InChI=1S/C21H40O4/c1-2-3-4-5-6-7-8-9-10-11-12-13-14-15-16-17-21(24)25-19-20(23)18-22/h9-10,20,22-23H,2-8,11-19H2,1H3
Instrument: Q-Exactive Orbitrap, Thermo Scientfic; Ultimate 3000 HPLC, Thermo Scientfic
Instrument type: LC-ESI-QFT
Ms type: MS2
Ion mode: POSITIVE
Ionization: ESI
Collision energy: 30eV
Column name: Acquity CSHC18
Retention time: 13.457 min
Base peak: 357.2999
Precursor m/z: 357.2999
Precursor type: [M+H]+
Precursor intensity: 172
m/z	relative intensity
50.6346	18
53.7163	16
55.0549	116
56.0083	17
57.0187	15
57.0342	107
57.0706	362
57.5375	19
57.7436	16
62.2647	16
62.6407	17
64.3014	21
65.3865	23
66.5766	17
67.0548	343
68.528	19
68.7522	17
69.0705	480
69.5862	16
71.0496	38
71.0861	265
71.2248	19
72.796	21
74.097	31
75.2676	18
76.5619	18
77.0876	21
79.0547	139
81.0681	32
81.0704	739
82.171	18
83.0861	633
85.0652	40
85.1017	206
86.8578	25
93.0703	258
95.0163	27
95.0859	744
97.0653	189
97.1016	633
99.0807	28
107.0859	339
109.1014	507
111.0807	130
111.1171	193
119.7352	19
121.1013	999
122.1047	25
123.117	254
125.0962	94
125.1326	83
129.0546	28
133.0676	27
133.9563	22
135.1169	973
137.1325	98
139.1115	113
149.1325	444
151.148	101
153.1271	51
155.3888	20
163.1483	181
165.1635	95
167.1429	29
177.1638	95
179.1788	21
191.1793	45
205.1946	27
208.8122	23
247.2419	697
265.2525	427
303.7955	21
339.2896	383
