Mass spectrum: 20-ethyl Prostaglandin F2-alpha; ESI-TOF; MS2; CE: 0.6458333;  [M+H]+
Name: 20-ethyl Prostaglandin F2-alpha
Class: NA
Formula: C22H38O5
Exact mass: 382.27192
SMILES: CCCCCCCC(O)/C=C/[C@H]1C(O)CC(O)C1C/C=C\CCCC(=O)O
InChI: InChI=1S/C22H38O5/c1-2-3-4-5-8-11-17(23)14-15-19-18(20(24)16-21(19)25)12-9-6-7-10-13-22(26)27/h6,9,14-15,17-21,23-25H,2-5,7-8,10-13,16H2,1H3,(H,26,27)/b9-6-,15-14+/t17?,18?,19-,20?,21?/m1/s1
Instrument: waters xevo g2 TOF
Instrument type: ESI-TOF
Ms type: MS2
Ion mode: POSITIVE
Ionization: ESI
Collision energy: 0.6458333
Column name: Acquity CSHC18
Retention time: 4.167 min
Base peak: 383.27992
Precursor m/z: 383.27992
Precursor type: [M+H]+
m/z	relative intensity
83.0892	69
85.1021	27
87.0445	148
110.0115	4
118.0743	25
123.1193	32
144.0915	29
155.0852	146
165.1627	4
169.1012	242
175.112	83
183.1149	119
187.1114	199
191.1105	25
193.1391	35
195.1156	72
199.1118	296
203.1071	103
209.1339	80
217.1213	62
219.1347	19
231.141	4
235.1701	4
245.1912	67
267.2143	104
273.2201	4
283.2433	76
285.2213	182
286.2239	33
291.2319	4
293.2471	4
294.2505	4
303.2334	220
304.2356	41
311.2365	397
312.2424	4
313.2497	41
321.2418	4
326.3775	202
327.3019	28
329.248	999
330.2518	205
331.2607	93
332.263	4
345.2463	4
347.2582	229
348.2616	4
349.2664	4
359.1884	600
360.1928	96
363.2526	4
365.2597	50
367.2305	34
369.2391	55
374.1588	226
375.1619	637
376.1679	94
377.1621	187
383.1615	32
384.2408	4
384.743	4
