Mass spectrum: L-GULONOLACTONE; LC-ESI-QTOF; MS2; CE: 20;  [M-H]-
Name: L-GULONOLACTONE
Class: NA
Formula: C6H10O6
Exact mass: 178.04774
SMILES: C(C(C1C(C(C(=O)O1)O)O)O)O
InChI: InChI=1S/C6H10O6/c7-1-2(8)5-3(9)4(10)6(11)12-5/h2-5,7-10H,1H2
Instrument: Agilent 6530Â Q-TOF LC/MS
Instrument type: LC-ESI-QTOF
Ms type: MS2
Ion mode: NEGATIVE
Ionization: ESI
Collision energy: 20
Column name: NA
Retention time: 0.200 min
Base peak: 177.03795
Precursor m/z: 177.03795
Precursor type: [M-H]-
Precursor intensity: 196
m/z	relative intensity
41.0053	118
43.0179	125
44.9959	134
55.02	147
57.0287	156
59.0337	158
71.0185	175
75.0091	307
89.0207	999
