Mass spectrum: (+)-α-Pinene; APCI-ITFT; MS2; CE: 35 CID;  [M+H]+
Name: (+)-α-Pinene
Class: NA
Formula: C10H16
Exact mass: 136.12520
SMILES: CC1=CCC2CC1C2(C)C
InChI: InChI=1S/C10H16/c1-7-4-5-8-6-9(7)10(8,2)3/h4,8-9H,5-6H2,1-3H3
Instrument: Orbitrap Elite
Instrument type: APCI-ITFT
Ms type: MS2
Ion mode: POSITIVE
Ionization: APCI
Collision energy: 35 CID
Column name: Acquity CSHC18
Retention time: 0.097 min
Base peak: 137.13230
Precursor m/z: 137.13230
Precursor type: [M+H]+
Precursor intensity: 98894670
m/z	relative intensity
77.0386	1
79.0542	23
81.0697	392
91.0543	1
93.0696	9
94.0731	3
95.0855	525
105.0448	2
105.7882	1
107.0857	3
108.0891	5
108.0931	2
109.101	65
119.0857	1
121.1006	1
122.1089	1
135.1168	4
136.1123	1
136.1204	15
137.1326	999
