Mass spectrum: XYLITOL; LC-ESI-QTOF; MS2; CE: 20;  [M-H]-
Name: XYLITOL
Class: NA
Formula: C5H12O5
Exact mass: 152.06847
SMILES: OC[C@H](O)C(O)[C@H](O)CO
InChI: InChI=1S/C5H12O5/c6-1-3(8)5(10)4(9)2-7/h3-10H,1-2H2/t3-,4+,5?
Instrument: Agilent 6530Â Q-TOF LC/MS
Instrument type: LC-ESI-QTOF
Ms type: MS2
Ion mode: NEGATIVE
Ionization: ESI
Collision energy: 20
Column name: NA
Retention time: 0.200 min
Base peak: 151.06325
Precursor m/z: 151.06325
Precursor type: [M-H]-
Precursor intensity: 182
m/z	relative intensity
41.0051	143
43.0214	171
55.0239	209
59.0334	257
71.0277	296
73.0279	568
89.0229	999
