Mass spectrum: Psoralen; LC-ESI-QTOF; MS2; CE: 35.00;  [2M+Na]+
Name: Psoralen
Class: NA
Formula: C11H6O3
Exact mass: 186.0317
SMILES: C1=CC(=O)OC2=CC3=C(C=CO3)C=C21
InChI: InChI=1S/C11H6O3/c12-11-2-1-7-5-8-3-4-13-9(8)6-10(7)14-11/h1-6H
Instrument: Bruker MicrOTOF-Q
Instrument type: LC-ESI-QTOF
Ms type: MS2
Ion mode: POSITIVE
Ionization: ESI
Collision energy: 35.00
Column name: Acquity CSHC18
Retention time: NA
Base peak: 395.0520
Precursor m/z: 395.0520
Precursor type: [2M+Na]+
m/z	relative intensity
98.994	51
112.9936	99
121.9991	138
122.5047	15
131.0066	203
131.5073	40
140.0101	256
140.5108	50
149.0139	59
149.5172	28
158.0357	172
159.0332	30
168.9933	16
178.0176	31
180.026	38
180.5299	23
185.0137	31
186.0305	145
187.0373	260
188.0389	53
192.5174	20
196.0276	103
196.5292	46
196.992	96
197.9973	169
199.0008	17
201.0171	93
201.5136	33
205.0336	30
206.0121	114
206.5129	55
208.0223	119
208.5253	49
209.0195	452
210.024	234
210.5247	40
211.0226	33
215.013	245
215.52	100
216.0107	85
217.0281	55
217.5319	27
219.03	13
219.5326	28
222.032	24
224.0213	999
224.523	256
224.987	96
226.0159	52
233.0274	422
233.5295	88
234.028	73
235.0296	29
236.0275	18
242.9951	77
261.0021	40
