Mass spectrum: 8-iso Prostaglandin E2; ESI-TOF; MS2; CE: 0.6458333;  [M+H]+
Name: 8-iso Prostaglandin E2
Class: NA
Formula: C20H32O5
Exact mass: 352.22497
SMILES: O[C@H]1[C@H](/C=C/[C@@H](O)CCCCC)[C@H](C/C=C\CCCC(O)=O)C(C1)=O
InChI: InChI=1S/C20H32O5/c1-2-3-6-9-15(21)12-13-17-16(18(22)14-19(17)23)10-7-4-5-8-11-20(24)25/h4,7,12-13,15-17,19,21,23H,2-3,5-6,8-11,14H2,1H3,(H,24,25)/b7-4-,13-12+/t15-,16-,17+,19+/m0/s1
Instrument: waters xevo g2 TOF
Instrument type: ESI-TOF
Ms type: MS2
Ion mode: POSITIVE
Ionization: ESI
Collision energy: 0.6458333
Column name: Acquity CSHC18
Retention time: 3.520 min
Base peak: 353.23297
Precursor m/z: 353.23297
Precursor type: [M+H]+
m/z	relative intensity
67.0536	109
71.0123	38
79.0546	191
81.0703	245
91.0554	507
93.0707	420
95.0851	232
99.0804	165
105.0704	70
107.0875	232
109.0664	49
117.0713	458
119.0861	482
121.1021	232
123.1179	39
129.0704	729
131.0862	782
132.089	65
133.1019	411
135.1175	114
141.0695	268
143.0865	375
145.1021	701
147.0814	241
155.0865	350
157.1023	511
158.1064	81
159.1179	341
161.1335	170
163.1118	61
167.0722	88
169.1017	396
173.0964	262
182.055	55
183.0984	319
185.132	113
187.1108	196
193.0992	102
197.1325	122
199.1111	123
201.1266	343
203.1792	34
211.1116	204
213.1603	57
215.1212	88
227.178	320
229.1943	204
245.1911	364
247.1247	146
255.1739	400
257.1895	204
263.1978	198
264.2018	33
271.2058	366
272.2081	57
273.1845	193
275.1968	25
281.189	537
282.1897	45
289.2154	77
299.2007	999
300.2053	138
301.2022	16
303.1602	308
317.2108	422
318.2144	62
319.1318	112
354.195	246
355.1568	394
