Mass spectrum: Ursolic acid; LC-ESI-QFT; MS2; CE: 15,30,45 (NCE);  [M-H]-
Name: Ursolic acid
Class: NA
Formula: C30H48O3
Exact mass: 456.3603
SMILES: CC1CCC2(CCC3(C)C(=CCC4C5(C)CCC(O)C(C)(C)C5CCC34C)C2C1C)C(O)=O
InChI: InChI=1S/C30H48O3/c1-18-10-15-30(25(32)33)17-16-28(6)20(24(30)19(18)2)8-9-22-27(5)13-12-23(31)26(3,4)21(27)11-14-29(22,28)7/h8,18-19,21-24,31H,9-17H2,1-7H3,(H,32,33)
Instrument: QE Focus, Thermo Scientfic; UPLC I-Class, Waters
Instrument type: LC-ESI-QFT
Ms type: MS2
Ion mode: NEGATIVE
Ionization: ESI
Collision energy: 15,30,45 (NCE)
Column name: Acquity CSHC18
Retention time: 5.587 min
Base peak: 455.3529
Precursor m/z: 455.3529
Precursor type: [M-H]-
Precursor intensity: 664689.6
m/z	relative intensity
260.5489	20
382.2415	54
455.3541	999
