Mass spectrum: Nonadecanoic acid; LC-ESI-ITFT; MS2; CE: 10;  [M-H]-
Name: Nonadecanoic acid
Class: Lipids and lipid-like molecules; Fatty Acyls; Fatty acids and conjugates
Formula: C19H38O2
Exact mass: 298.28718
SMILES: CCCCCCCCCCCCCCCCCCC(O)=O
InChI: InChI=1S/C19H38O2/c1-2-3-4-5-6-7-8-9-10-11-12-13-14-15-16-17-18-19(20)21/h2-18H2,1H3,(H,20,21)
Instrument: Thermo Scientific Q-Exactive Focus
Instrument type: LC-ESI-ITFT
Ms type: MS2
Ion mode: NEGATIVE
Ionization: ESI
Collision energy: 10
Column name: Acquity CSHC18
Retention time: 0.360 min
Base peak: 297.27991
Precursor m/z: 297.27991
Precursor type: [M-H]-
m/z	relative intensity
160.9752	97
166.9234	12
182.8959	19
228.9628	14
232.9244	31
297.0471	123
297.1528	999
297.1704	14
297.2797	164
315.0579	78
