Mass spectrum: DTDP-D-GLUCOSE; LC-ESI-QFT; MS2; CE: 30eV;  [M-H]-
Name: DTDP-D-GLUCOSE
Class: NA
Formula: C16H26N2O16P2
Exact mass: 564.07576
SMILES: CC1=CN([C@H]2C[C@H](O)[C@@H](COP(O)(=O)OP(O)(=O)OC3O[C@H](CO)[C@@H](O)[C@H](O)[C@H]3O)O2)C(=O)NC1=O
InChI: InChI=1S/C16H26N2O16P2/c1-6-3-18(16(25)17-14(6)24)10-2-7(20)9(31-10)5-30-35(26,27)34-36(28,29)33-15-13(23)12(22)11(21)8(4-19)32-15/h3,7-13,15,19-23H,2,4-5H2,1H3,(H,26,27)(H,28,29)(H,17,24,25)/t7-,8+,9+,10+,11+,12-,13+,15?/m0/s1
Instrument: Q-Exactive Orbitrap, Thermo Scientfic; Ultimate 3000 HPLC, Thermo Scientfic
Instrument type: LC-ESI-QFT
Ms type: MS2
Ion mode: NEGATIVE
Ionization: ESI
Collision energy: 30eV
Column name: Acquity CSHC18
Retention time: 0.737 min
Base peak: 563.0685
Precursor m/z: 563.0685
Precursor type: [M-H]-
Precursor intensity: 124
m/z	relative intensity
53.3369	5
53.7639	4
56.881	4
58.6621	5
58.7802	5
62.5664	7
64.6145	5
66.7876	5
69.9037	6
77.8432	5
78.9573	731
90.2082	5
91.4148	5
96.1391	5
96.9679	125
98.8434	5
114.8942	6
125.0338	133
158.6046	5
158.9239	94
174.918	5
176.9347	53
176.9944	122
177.9981	6
195.0051	623
196.0087	8
214.5713	5
223.0001	6
241.011	725
242.0147	39
256.9615	208
257.9656	10
274.9731	8
278.0439	11
302.9679	7
303.0385	7
320.9779	121
321.0489	999
322.0527	66
331.6696	7
383.0046	186
384.0085	25
401.0147	27
563.0688	11
