Mass spectrum: 1-Methylindole-3-carboxylic acid; LC-ESI-QTOF; MS2; CE: 15.00;  [M-CO2+H]+
Name: 1-Methylindole-3-carboxylic acid
Class: NA
Formula: C10H9NO2
Exact mass: 175.0633
SMILES: CN1C=C(C2=CC=CC=C21)C(=O)O
InChI: InChI=1S/C10H9NO2/c1-11-6-8(10(12)13)7-4-2-3-5-9(7)11/h2-6H,1H3,(H,12,13)
Instrument: Bruker MicrOTOF-Q
Instrument type: LC-ESI-QTOF
Ms type: MS2
Ion mode: POSITIVE
Ionization: ESI
Collision energy: 15.00
Column name: Acquity CSHC18
Retention time: NA
Base peak: 132.0808
Precursor m/z: 132.0808
Precursor type: [M-CO2+H]+
m/z	relative intensity
56.36	2
65.04	2
89.04	6
90.05	4
91.05	118
91.26	1
92.05	4
93.55	2
94.33	2
103.05	4
104.06	1
105.07	32
108.51	1
115.05	17
116.05	4
116.16	2
116.58	1
116.97	4
117.06	999
117.19	1
117.25	3
117.31	3
117.36	2
117.43	1
117.47	2
117.7	2
117.99	2
118.06	76
118.2	2
118.87	2
120.43	2
128.04	3
130.07	57
131.07	74
131.48	2
131.59	2
131.7	1
131.99	5
132.08	979
132.3	3
132.48	1
132.6	3
132.95	2
133.08	76
133.26	3
134.37	1
239.82	2
280.38	2
307.15	1
