Mass spectrum: Chlorogenic acid; LC-ESI-QFT; MS2; CE: 15,30,45 (NCE);  [M+H]+
Name: Chlorogenic acid
Class: NA
Formula: C16H18O9
Exact mass: 354.0951
SMILES: C1C(C(C(CC1(C(=O)O)O)OC(=O)C=CC2=CC(=C(C=C2)O)O)O)O
InChI: InChI=1S/C16H18O9/c17-9-3-1-8(5-10(9)18)2-4-13(20)25-12-7-16(24,15(22)23)6-11(19)14(12)21/h1-5,11-12,14,17-19,21,24H,6-7H2,(H,22,23)
Instrument: QE Focus, Thermo Scientfic; UPLC I-Class, Waters
Instrument type: LC-ESI-QFT
Ms type: MS2
Ion mode: POSITIVE
Ionization: ESI
Collision energy: 15,30,45 (NCE)
Column name: Acquity CSHC18
Retention time: 0.887 min
Base peak: 355.1025
Precursor m/z: 355.1025
Precursor type: [M+H]+
Precursor intensity: 93835430
m/z	relative intensity
55.8157	2
63.8339	2
64.023	2
65.1765	2
65.2301	2
80.5173	2
81.0158	2
82.3143	2
87.0509	2
89.0392	4
107.0492	3
117.0334	24
124.9973	2
135.0437	53
145.0281	68
163.0387	999
180.7045	2
274.2715	3
