Mass spectrum: ADENOSINE 2',3'-CYCLIC PHOSPHATE; LC-ESI-QFT; MS2; CE: 30eV;  [M+H]+
Name: ADENOSINE 2',3'-CYCLIC PHOSPHATE
Class: NA
Formula: C10H12N5O6P
Exact mass: 329.05252
SMILES: NC1=NC=NC2=C1N=CN2C1OC(CO)C2OP(O)(=O)OC12
InChI: InChI=1S/C10H12N5O6P/c11-8-5-9(13-2-12-8)15(3-14-5)10-7-6(4(1-16)19-10)20-22(17,18)21-7/h2-4,6-7,10,16H,1H2,(H,17,18)(H2,11,12,13)
Instrument: Q-Exactive Orbitrap, Thermo Scientfic; Ultimate 3000 HPLC, Thermo Scientfic
Instrument type: LC-ESI-QFT
Ms type: MS2
Ion mode: POSITIVE
Ionization: ESI
Collision energy: 30eV
Column name: Acquity CSHC18
Retention time: 0.808 min
Base peak: 330.0598
Precursor m/z: 330.0598
Precursor type: [M+H]+
Precursor intensity: 140
m/z	relative intensity
51.9376	3
69.0343	121
73.2096	3
81.5072	4
82.7072	3
85.0291	3
86.6583	3
97.029	47
98.9848	328
110.2319	4
113.8977	3
116.995	5
119.0353	6
128.3207	3
130.4768	3
132.7022	4
134.282	4
137.0593	84
137.0655	222
142.7634	3
154.8905	4
164.9952	28
195.0059	19
198.1848	4
202.073	67
213.0165	133
214.0735	5
215.2551	4
232.0838	7
270.742	4
330.0607	999
331.0641	74
