Mass spectrum: Neoabietic acid; LC-ESI-QTOF; MS2; CE: 15.09;  [M-H2O-H]-
Name: Neoabietic acid
Class: NA
Formula: C20H30O2
Exact mass: 302.2246
SMILES: CC(=C1CCC2C(=C1)CCC3C2(CCCC3(C)C(=O)O)C)C
InChI: InChI=1S/C20H30O2/c1-13(2)14-6-8-16-15(12-14)7-9-17-19(16,3)10-5-11-20(17,4)18(21)22/h12,16-17H,5-11H2,1-4H3,(H,21,22)
Instrument: Bruker MicrOTOF-Q
Instrument type: LC-ESI-QTOF
Ms type: MS2
Ion mode: NEGATIVE
Ionization: ESI
Collision energy: 15.09
Column name: Acquity CSHC18
Retention time: NA
Base peak: 283.2067
Precursor m/z: 283.2067
Precursor type: [M-H2O-H]-
m/z	relative intensity
255.2299	1
299.6118	1
300.7808	1
300.8838	2
301.2161	999
301.4944	2
301.5657	2
301.7505	2
301.8355	2
302.2187	215
302.5809	1
303.223	6
