Mass spectrum: 2,3-Diaminopropionic acid; ESI-TOF; MS2; CE: 6.0000000;  [M+H]+
Name: 2,3-Diaminopropionic acid
Class: NA
Formula: C3H8N2O2
Exact mass: 104.05858
SMILES: NCC(N)C(O)=O
InChI: InChI=1S/C3H8N2O2/c4-1-2(5)3(6)7/h2H,1,4-5H2,(H,6,7)
Instrument: waters xevo g2 TOF
Instrument type: ESI-TOF
Ms type: MS2
Ion mode: POSITIVE
Ionization: ESI
Collision energy: 6.0000000
Column name: Acquity CSHC18
Retention time: 0.472 min
Base peak: 105.06658
Precursor m/z: 105.06658
Precursor type: [M+H]+
m/z	relative intensity
88.0402	57
99.9703	59
102.0923	2
105.067	115
111.9712	21
114.9714	49
115.9792	4
124.0884	13
129.0536	51
131.9623	21
133.9292	12
141.9592	999
142.9641	23
145.0184	19
147.0366	2
155.0149	5
160.9969	9
163.977	50
170.0932	38
174.9546	13
175.965	11
183.988	7
186.0436	3
189.0192	10
191.9424	1
195.9134	8
201.0341	15
202.019	2
204.9913	32
206.9934	5
217.9306	1
230.8909	3
233.0479	20
233.9272	7
241.8847	11
247.0726	18
258.1069	12
258.8882	9
261.0476	4
262.0362	101
263.0434	85
264.0437	9
265.0454	15
267.0412	5
366.0951	10
388.0825	5
420.0151	4
421.0232	16
466.0186	2
524.0738	15
547.0533	1
