Mass spectrum: Methyl jasmonate; LC-ESI-ITFT; MS2; CE: 20;  [M+H]+
Name: Methyl jasmonate
Class: Lipids and lipid-like molecules; Fatty Acyls; Lineolic acids and derivatives
Formula: C13H20O3
Exact mass: 224.14124
SMILES: CC\C=C/C[C@@H]1[C@@H](CC(=O)OC)CCC1=O
InChI: InChI=1S/C13H20O3/c1-3-4-5-6-11-10(7-8-12(11)14)9-13(15)16-2/h4-5,10-11H,3,6-9H2,1-2H3/b5-4-/t10-,11-/m1/s1
Instrument: Thermo Scientific Q-Exactive Focus
Instrument type: LC-ESI-ITFT
Ms type: MS2
Ion mode: POSITIVE
Ionization: ESI
Collision energy: 20
Column name: Acquity CSHC18
Retention time: 0.630 min
Base peak: 225.14851
Precursor m/z: 225.14851
Precursor type: [M+H]+
m/z	relative intensity
67.0548	138
81.0703	227
91.0546	337
93.0703	342
105.0702	475
109.0651	362
119.0858	132
133.1013	999
147.1169	678
151.1118	729
