Mass spectrum: 4-Hydroxybenzoic acid; LC-ESI-ITFT; MS2; CE: 60;  [M-H]-
Name: 4-Hydroxybenzoic acid
Class: Benzenoids; Benzene and substituted derivatives; Benzoic acids and derivatives
Formula: C7H6O3
Exact mass: 138.03169
SMILES: OC(=O)C1=CC=C(O)C=C1
InChI: InChI=1S/C7H6O3/c8-6-3-1-5(2-4-6)7(9)10/h1-4,8H,(H,9,10)
Instrument: Thermo Scientific Q-Exactive Focus
Instrument type: LC-ESI-ITFT
Ms type: MS2
Ion mode: NEGATIVE
Ionization: ESI
Collision energy: 60
Column name: Acquity CSHC18
Retention time: 1.961 min
Base peak: 137.02441
Precursor m/z: 137.02441
Precursor type: [M-H]-
m/z	relative intensity
65.0384	999
79.0226	86
89.1596	89
89.4333	99
92.5153	83
93.0333	257
109.7886	88
117.943	87
127.8573	88
157.2363	93
