Mass spectrum: Sinapic acid; LC-ESI-ITFT; MS2; CE: 45eV;  [M-H]-
Name: Sinapic acid
Class: phenolic acid
Formula: C11H12O5
Exact mass: 224.0685
SMILES: COC1=CC(=CC(=C1O)OC)C=CC(=O)O
InChI: InChI=1S/C11H12O5/c1-15-8-5-7(3-4-10(12)13)6-9(16-2)11(8)14/h3-6,14H,1-2H3,(H,12,13)
Instrument: LTQ Orbitrap XL, Thermo Scientfic; Dionex Ultimate 300
Instrument type: LC-ESI-ITFT
Ms type: MS2
Ion mode: NEGATIVE
Ionization: ESI
Collision energy: 45eV
Column name: Alltima C18
Retention time: 16.69 min
Base peak: 223.0585
Precursor m/z: 223.0585
Precursor type: [M-H]-
m/z	relative intensity
163.9502	999
178.9545	397
192.9032	1
