Mass spectrum: N-Acetyl-D-Glucosamine 6-Phosphate; LC-ESI-QTOF; MS2; CE: 30;  [M-H]-
Name: N-Acetyl-D-Glucosamine 6-Phosphate
Class: Acylaminosugars
Formula: C8H16NO9P
Exact mass: 301.05627
SMILES: CC(=O)N[C@H]1C(O)O[C@H](COP(O)(O)=O)[C@@H](O)[C@@H]1O
InChI: InChI=1S/C8H16NO9P/c1-3(10)9-5-7(12)6(11)4(18-8(5)13)2-17-19(14,15)16/h4-8,11-13H,2H2,1H3,(H,9,10)(H2,14,15,16)/t4-,5-,6-,7-,8?/m1/s1
Instrument: impact II
Instrument type: LC-ESI-QTOF
Ms type: MS2
Ion mode: NEGATIVE
Ionization: ESI
Collision energy: 30
Column name: Acquity CSHC18
Retention time: 1.735 min
Base peak: 300.05000
Precursor m/z: 300.05000
Precursor type: [M-H]-
m/z	relative intensity
78.959	644
96.9697	999
138.9804	127
