Mass spectrum: Ginkgetin; LC-ESI-QFT; MS2; CE: 15,30,45 (NCE);  [2M+H]+
Name: Ginkgetin
Class: NA
Formula: C32H22O10
Exact mass: 566.1213
SMILES: COC1=CC(O)=C2C(=O)C=C(OC2=C1)C1=CC(=C(OC)C=C1)C1=C2OC(=CC(=O)C2=C(O)C=C1O)C1=CC=C(O)C=C1
InChI: InChI=1S/C32H22O10/c1-39-18-10-20(34)30-23(37)13-27(41-28(30)11-18)16-5-8-25(40-2)19(9-16)29-21(35)12-22(36)31-24(38)14-26(42-32(29)31)15-3-6-17(33)7-4-15/h3-14,33-36H,1-2H3
Instrument: QE Focus, Thermo Scientfic; UPLC I-Class, Waters
Instrument type: LC-ESI-QFT
Ms type: MS2
Ion mode: POSITIVE
Ionization: ESI
Collision energy: 15,30,45 (NCE)
Column name: Acquity CSHC18
Retention time: 3.647 min
Base peak: 1133.2500
Precursor m/z: 1133.2500
Precursor type: [2M+H]+
Precursor intensity: 7842014
m/z	relative intensity
121.0286	73
167.0339	8
283.0608	3
311.0913	4
335.0923	2
339.0869	2
359.0919	1
363.0872	1
389.0656	1
390.074	4
401.1016	14
416.0525	4
417.0608	12
427.0822	3
431.0753	21
432.085	16
449.0888	8
521.0877	4
525.1158	5
535.1022	56
551.099	3
552.1045	4
567.1282	999
1013.4601	3
