Mass spectrum: D-MANNOSAMINE; LC-ESI-QTOF; MS2; CE: 40;  [M+H]+
Name: D-MANNOSAMINE
Class: NA
Formula: C6H13NO5
Exact mass: 179.0794
SMILES: C(C1C(C(C(C(O1)O)N)O)O)O
InChI: InChI=1S/C6H13NO5/c7-3-5(10)4(9)2(1-8)12-6(3)11/h2-6,8-11H,1,7H2
Instrument: Agilent 6530Â Q-TOF LC/MS
Instrument type: LC-ESI-QTOF
Ms type: MS2
Ion mode: POSITIVE
Ionization: ESI
Collision energy: 40
Column name: NA
Retention time: 0.200 min
Base peak: 180.08647
Precursor m/z: 180.08647
Precursor type: [M+H]+
Precursor intensity: 86.5
m/z	relative intensity
42.0346	999
42.1417	67
42.3534	203
42.5761	193
44.0421	310
45.0325	960
45.9268	19
46.1254	155
46.2608	48
46.9297	87
53.3236	174
57.9889	58
58.0438	96
60.9787	368
62.1192	77
69.1252	67
69.2778	96
69.825	38
72.626	126
73.8899	116
74.0635	87
78.0422	960
85.4283	29
92.4625	96
92.4818	48
92.7962	77
94.2811	58
107.9008	232
110.9731	300
120.9443	805
121.0116	58
128.6119	232
129.3675	145
143.5765	174
150.734	38
163.2691	77
168.885	87
170.4032	368
177.2036	126
183.0451	58
183.458	116
184.7555	378
