Mass spectrum: Naringenin; LC-ESI-QTOF; MS2; CE: 20-40eV;  [M+H]+
Name: Naringenin
Class: flavonoid
Formula: C15H12O5
Exact mass: 272.0685
SMILES: C=1C=C(C=CC1C2CC(C3=C(C=C(C=C3O2)O)O)=O)O
InChI: InChI=1S/C15H12O5/c16-9-3-1-8(2-4-9)13-7-12(19)15-11(18)5-10(17)6-14(15)20-13/h1-6,13,16-18H,7H2
Instrument: Impact II, Bruker; Dionex 3000, Thermo Scientific
Instrument type: LC-ESI-QTOF
Ms type: MS2
Ion mode: POSITIVE
Ionization: ESI
Collision energy: 20-40eV
Column name: Acquity CSHC18
Retention time: 10.048 min
Base peak: 273.0755
Precursor m/z: 273.0755
Precursor type: [M+H]+
Precursor intensity: 8035.75
m/z	relative intensity
97.0262	24
107.0479	67
119.0314	29
119.0481	164
121.0294	26
123.0425	49
147.0429	401
148.0446	25
153.0168	956
154.0199	88
155.0224	26
171.0275	25
209.1194	25
255.1715	27
273.0756	999
