Mass spectrum: 4-GUANIDINOBUTANOATE; LC-ESI-QTOF; MS2; CE: 10;  [M+H]+
Name: 4-GUANIDINOBUTANOATE
Class: NA
Formula: C5H11N3O2
Exact mass: 145.0851
SMILES: NC(=N)NCCCC(O)=O
InChI: InChI=1S/C5H11N3O2/c6-5(7)8-3-1-2-4(9)10/h1-3H2,(H,9,10)(H4,6,7,8)
Instrument: Agilent 6530Â Q-TOF LC/MS
Instrument type: LC-ESI-QTOF
Ms type: MS2
Ion mode: POSITIVE
Ionization: ESI
Collision energy: 10
Column name: NA
Retention time: 0.200 min
Base peak: 146.09436
Precursor m/z: 146.09436
Precursor type: [M+H]+
Precursor intensity: 153.5
m/z	relative intensity
43.021	27
45.0353	42
56.0502	86
60.057	86
69.0356	92
86.0612	93
87.0456	107
104.0724	174
111.0565	230
128.0826	544
129.0685	559
146.0935	999
