Mass spectrum: 3-(2-Hydroxyphenyl)acrylate; LC-ESI-ITFT; MS2; CE: 45eV;  [M+H]+
Name: 3-(2-Hydroxyphenyl)acrylate
Class: phenolic acid
Formula: [C9H7O3]-
Exact mass: 163.0401
SMILES: C1=CC=C(C(=C1)C=CC(=O)O)[O-]
InChI: InChI=1S/C9H8O3/c10-8-4-2-1-3-7(8)5-6-9(11)12/h1-6,10H,(H,11,12)/p-1
Instrument: LTQ Orbitrap XL, Thermo Scientfic; Dionex Ultimate 300
Instrument type: LC-ESI-ITFT
Ms type: MS2
Ion mode: POSITIVE
Ionization: ESI
Collision energy: 45eV
Column name: Alltima C18
Retention time: 24.35 min
Base peak: 164.0461
Precursor m/z: 164.0461
Precursor type: [M+H]+
m/z	relative intensity
104.9869	6
133.858	999
146.9559	816
