Mass spectrum: Tyrosine; LC-ESI-ITFT; MS2; CE: 45eV;  [M+H]+
Name: Tyrosine
Class: aminoacid
Formula: C9H11NO3
Exact mass: 181.0739
SMILES: C1=CC(=CC=C1CC(C(=O)O)N)O
InChI: InChI=1S/C9H11NO3/c10-8(9(12)13)5-6-1-3-7(11)4-2-6/h1-4,8,11H,5,10H2,(H,12,13)
Instrument: LTQ Orbitrap XL, Thermo Scientfic; Dionex Ultimate 300
Instrument type: LC-ESI-ITFT
Ms type: MS2
Ion mode: POSITIVE
Ionization: ESI
Collision energy: 45eV
Column name: Alltima C18
Retention time: 2.63 min
Base peak: 182.0804
Precursor m/z: 182.0804
Precursor type: [M+H]+
m/z	relative intensity
118.9869	870
122.9685	742
139.0374	153
153.9622	999
