Mass spectrum: Cadaverine; LC-ESI-ITFT; MS2; CE: 30;  [M+H]+
Name: Cadaverine
Class: Organic nitrogen compounds; Organonitrogen compounds; Amines
Formula: C5H14N2
Exact mass: 102.11570
SMILES: NCCCCCN
InChI: InChI=1S/C5H14N2/c6-4-2-1-3-5-7/h1-7H2
Instrument: Thermo Scientific Q-Exactive Focus
Instrument type: LC-ESI-ITFT
Ms type: MS2
Ion mode: POSITIVE
Ionization: ESI
Collision energy: 30
Column name: Acquity CSHC18
Retention time: 0.916 min
Base peak: 103.12298
Precursor m/z: 103.12298
Precursor type: [M+H]+
m/z	relative intensity
53.0027	258
69.0703	748
72.1262	88
82.6499	87
86.0967	999
90.9878	74
100.4712	72
102.3156	77
103.8749	76
124.5058	88
