Mass spectrum: Pyrocatechol monoglucoside; LC-ESI-QTOF; MS2; CE: 15.00;  [M-H]-
Name: Pyrocatechol monoglucoside
Class: NA
Formula: C12H16O7
Exact mass: 272.0896
SMILES: C1=CC=C(C(=C1)O)OC2C(C(C(C(O2)CO)O)O)O
InChI: InChI=1S/C12H16O7/c13-5-8-9(15)10(16)11(17)12(19-8)18-7-4-2-1-3-6(7)14/h1-4,8-17H,5H2
Instrument: Bruker MicrOTOF-Q
Instrument type: LC-ESI-QTOF
Ms type: MS2
Ion mode: NEGATIVE
Ionization: ESI
Collision energy: 15.00
Column name: Acquity CSHC18
Retention time: NA
Base peak: 271.0823
Precursor m/z: 271.0823
Precursor type: [M-H]-
m/z	relative intensity
52	224
59	119
59.82	109
60.85	145
64.92	176
66.89	143
67.78	195
70.47	190
75.3	166
77.12	133
82.16	109
83.8	138
84.64	143
86.38	190
87.73	166
89.17	143
92.81	128
94.41	238
95.82	109
97.095	226
97.74	214
104.13	224
105.31	166
108.0167	999
109.03	848
110.03	181
111.345	214
111.98	162
117.59	185
121.02	224
186.6	128
225.87	166
250.32	143
260.55	119
265.01	119
304.69	128
315.55	119
335.1	195
342.82	138
353.24	138
360.51	147
382.73	138
430.36	104
477.36	109
514.65	128
532.23	152
591.15	123
602.36	123
616.84	190
658.33	195
731.67	195
765.8	104
832.22	181
928.04	119
