Mass spectrum: Formononetin; LC-ESI-ITFT; MS2; CE: 40;  [M+H]+
Name: Formononetin
Class: Phenylpropanoids and polyketides; Isoflavonoids; O-methylated isoflavonoids
Formula: C16H12O4
Exact mass: 268.07356
SMILES: COC1=CC=C(C=C1)C1=COC2=C(C=CC(O)=C2)C1=O
InChI: InChI=1S/C16H12O4/c1-19-12-5-2-10(3-6-12)14-9-20-15-8-11(17)4-7-13(15)16(14)18/h2-9,17H,1H3
Instrument: Thermo Scientific Q-Exactive Focus
Instrument type: LC-ESI-ITFT
Ms type: MS2
Ion mode: POSITIVE
Ionization: ESI
Collision energy: 40
Column name: Acquity CSHC18
Retention time: 1.463 min
Base peak: 269.08084
Precursor m/z: 269.08084
Precursor type: [M+H]+
m/z	relative intensity
118.0414	439
169.0646	205
170.0724	210
181.0646	275
197.0595	999
198.0673	200
225.0542	408
226.0621	340
237.0542	300
253.0491	469
