Mass spectrum: acyl sugar_S4:24 (2,5,5,12); LC-ESI-ITFT; MS2; CE: 35 NCE;  [M+FA-H]-
Name: acyl sugar_S4:24 (2,5,5,12)
Class: acyl sugar
Formula: C36H62O15
Exact mass: 734.4089
SMILES: CCCCCCCCCCCC(=O)OC1C(C(OC(C1OC(=O)C)OC2(C(C(C(O2)CO)O)OC(=O)CC(C)C)CO)CO)OC(=O)CC(C)C
InChI: InChI=1S/C36H62O15/c1-7-8-9-10-11-12-13-14-15-16-27(41)47-32-31(48-28(42)17-22(2)3)26(20-38)46-35(33(32)45-24(6)40)51-36(21-39)34(30(44)25(19-37)50-36)49-29(43)18-23(4)5/h22-23,25-26,30-35,37-39,44H,7-21H2,1-6H3
Instrument: LTQ Orbitrap XL, Thermo Scientfic; Aquity (U)HPLC, Waters
Instrument type: LC-ESI-ITFT
Ms type: MS2
Ion mode: NEGATIVE
Ionization: ESI
Collision energy: 35 NCE
Column name: Acquity CSHC18
Retention time: 42.955 min
Base peak: 779.4097
Precursor m/z: 779.4097
Precursor type: [M+FA-H]-
Precursor intensity: 533695.8
m/z	relative intensity
293.6748	22
456.7096	18
551.2373	125
589.3246	89
607.3345	999
