Mass spectrum: D-MANNOSAMINE; LC-ESI-QTOF; MS2; CE: 20;  [M+H]+
Name: D-MANNOSAMINE
Class: NA
Formula: C6H13NO5
Exact mass: 179.0794
SMILES: C(C1C(C(C(C(O1)O)N)O)O)O
InChI: InChI=1S/C6H13NO5/c7-3-5(10)4(9)2(1-8)12-6(3)11/h2-6,8-11H,1,7H2
Instrument: Agilent 6530Â Q-TOF LC/MS
Instrument type: LC-ESI-QTOF
Ms type: MS2
Ion mode: POSITIVE
Ionization: ESI
Collision energy: 20
Column name: NA
Retention time: 0.200 min
Base peak: 180.08646
Precursor m/z: 180.08646
Precursor type: [M+H]+
Precursor intensity: 30.5
m/z	relative intensity
40.4892	69
41.0391	356
41.0671	49
43.2273	108
43.3641	187
44.0475	544
44.3476	118
45.1258	296
53.0365	603
56.0463	613
56.0874	29
56.4694	89
56.9652	909
57.4845	69
58.183	158
58.2008	59
60.0454	633
61.446	39
69.1949	217
70.0629	801
70.7046	148
71.4836	108
71.5057	39
72.0414	999
72.0925	59
79.6085	79
79.6366	19
84.0425	435
84.0868	59
84.356	445
85.0241	395
87.4053	148
98.7108	29
109.5684	39
118.7804	79
118.7978	39
120.5836	89
121.3175	197
125.64	19
126.0626	415
127.0342	326
127.0994	49
129.9686	138
130.0071	19
137.379	69
147.1777	306
148.303	49
149.0695	158
150.2344	69
151.6467	168
153.8082	326
162.0739	603
163.808	59
164.1005	395
167.5319	187
169.7287	49
176.6535	108
179.5087	247
