Mass spectrum: Putative_Momordin Ii; LC-ESI-QTOF; MS2; CE: 20-40eV;  [M+NH4]+
Name: Putative_Momordin Ii
Class: Triterpene saponins
Formula: C47H74O18
Exact mass: 926.4875
SMILES: CC1(C)CCC2(CCC3(C)C(=CCC4(C5(C)CCC(C(C)(C)C5(CCC43C)[H])(OC6(C(C(C(C(C(=O)O)(O6)[H])(O)[H])(OC7(C(C(C(CO7)(O)[H])(O)[H])(O)[H])[H])[H])(O)[H])[H])[H])[H])C2(C1)[H])C(=O)OC8(C(C(C(C(CO)(O8)[H])(O)[H])(O)[H])(O)[H])[H]
InChI: InChI=1S/C47H74O18/c1-42(2)14-16-47(41(59)65-39-32(54)30(52)29(51)24(19-48)61-39)17-15-45(6)21(22(47)18-42)8-9-26-44(5)12-11-27(43(3,4)25(44)10-13-46(26,45)7)62-40-34(56)35(33(55)36(64-40)37(57)58)63-38-31(53)28(50)23(49)20-60-38/h8,22-36,38-40,48-56H,9-20H2,1-7H3,(H,57,58)
Instrument: Impact II, Bruker; Dionex 3000, Thermo Scientific
Instrument type: LC-ESI-QTOF
Ms type: MS2
Ion mode: POSITIVE
Ionization: ESI
Collision energy: 20-40eV
Column name: Acquity CSHC18
Retention time: 13.540 min
Base peak: 944.5203
Precursor m/z: 944.5203
Precursor type: [M+NH4]+
Precursor intensity: 373643.8
m/z	relative intensity
133.0749	27
150.1048	31
191.16	34
193.1592	38
207.1552	40
219.1741	42
221.172	51
231.1918	71
287.2184	92
439.477	999
