Mass spectrum: Isopimpinellin; LC-ESI-QTOF; MS2; CE: 35.45;  [2M+Na]+
Name: Isopimpinellin
Class: NA
Formula: C13H10O5
Exact mass: 246.0528
SMILES: COC1=C2C=COC2=C(C3=C1C=CC(=O)O3)OC
InChI: InChI=1S/C13H10O5/c1-15-10-7-3-4-9(14)18-12(7)13(16-2)11-8(10)5-6-17-11/h3-6H,1-2H3
Instrument: Bruker MicrOTOF-Q
Instrument type: LC-ESI-QTOF
Ms type: MS2
Ion mode: POSITIVE
Ionization: ESI
Collision energy: 35.45
Column name: Acquity CSHC18
Retention time: NA
Base peak: 515.0947
Precursor m/z: 515.0947
Precursor type: [2M+Na]+
m/z	relative intensity
231.0284	19
232.0343	19
235.9857	20
243.4983	22
244.9913	26
245.4937	27
246.0524	29
247.0588	29
248.0622	32
251.008	38
252.503	38
253.0037	41
253.9979	42
254.4997	43
255.0004	43
255.9695	47
260.0127	47
261.5092	49
262.01	52
262.5102	55
269.0406	57
269.5217	72
270.0451	72
270.9925	78
273.9785	113
276.5318	133
278.0177	144
287.9582	178
289.0027	197
291.989	202
307.0124	248
325.0253	999
