Mass spectrum: 3-METHYL-L-HISTIDINE; LC-ESI-QTOF; MS2; CE: 40;  [M+H]+
Name: 3-METHYL-L-HISTIDINE
Class: NA
Formula: C7H11N3O2
Exact mass: 169.0851
SMILES: [H][C@](N)(CC1=CN=CN1C)C(O)=O
InChI: InChI=1S/C7H11N3O2/c1-10-4-9-3-5(10)2-6(8)7(11)12/h3-4,6H,2,8H2,1H3,(H,11,12)/t6-/m0/s1
Instrument: Agilent 6530Â Q-TOF LC/MS
Instrument type: LC-ESI-QTOF
Ms type: MS2
Ion mode: POSITIVE
Ionization: ESI
Collision energy: 40
Column name: NA
Retention time: 0.200 min
Base peak: 170.09154
Precursor m/z: 170.09154
Precursor type: [M+H]+
Precursor intensity: 156.5
m/z	relative intensity
42.1978	73
42.2176	42
42.3555	121
44.713	12
44.9631	67
54.5187	36
55.0921	54
56.271	48
56.9618	359
57.2651	170
58.4465	97
59.2905	12
59.8678	188
61.3546	109
64.2487	67
67.9318	584
68.0542	67
68.2067	103
68.3574	201
71.1242	30
71.8526	12
83.5678	60
84.6635	134
86.2325	91
87.6408	243
89.4179	134
95.0615	999
95.1229	60
95.8846	280
96.0663	596
96.401	42
98.4534	140
102.3126	36
109.0687	134
110.1497	24
111.6466	18
118.1308	54
119.1852	24
124.0741	24
127.656	48
129.9033	42
131.1416	298
131.2009	24
134.6742	140
135.2899	18
138.3085	36
144.9566	54
165.4762	54
168.9258	24
