Mass spectrum: reserpine; LC-ESI-ITFT; MS2; CE: 0.3;  [M+H]+
Name: reserpine
Class: alkaloids
Formula: C33H40N2O9
Exact mass: 608.2734
SMILES: COC1C(CC2CN3CCC4=C(C3CC2C1C(=O)OC)NC5=C4C=CC(=C5)OC)OC(=O)C6=CC(=C(C(=C6)OC)OC)OC
InChI: InChI=1S/C33H40N2O9/c1-38-19-7-8-20-21-9-10-35-16-18-13-27(44-32(36)17-11-25(39-2)30(41-4)26(12-17)40-3)31(42-5)28(33(37)43-6)22(18)15-24(35)29(21)34-23(20)14-19/h7-8,11-12,14,18,22,24,27-28,31,34H,9-10,13,15-16H2,1-6H3
Instrument: LTQ-Orbitrap XL hybrid mass spectrometer (Thermo Scientific)
Instrument type: LC-ESI-ITFT
Ms type: MS2
Ion mode: POSITIVE
Ionization: ESI
Collision energy: 0.3
Column name: Acquity CSHC18
Retention time: 8.772 min
Base peak: 609.2794
Precursor m/z: 609.2794
Precursor type: [M+H]+
Precursor intensity: 11357010
m/z	relative intensity
167.0298	10
174.0916	8
186.2483	1
192.102	10
195.0652	72
197.6199	2
200.1063	2
204.1019	3
212.105	1
215.1182	2
219.8638	1
222.1114	3
224.1279	14
236.1284	35
242.1381	4
248.1055	1
254.1376	3
270.0203	1
276.1343	1
287.1186	6
288.1378	5
289.9652	1
290.1186	2
300.7398	1
304.1331	2
316.1356	2
322.1435	5
324.1404	5
333.1605	7
334.1421	4
335.5103	1
336.1596	14
337.1303	5
340.1521	2
347.4918	1
348.1596	17
353.1276	6
354.1703	6
365.1864	112
366.1701	11
368.1497	71
379.2034	2
380.1859	14
386.1659	2
393.7936	5
396.9137	3
397.0605	4
397.0827	5
397.1064	6
397.2124	867
397.2982	5
397.3223	5
397.3457	5
397.4442	2
397.4644	3
397.5184	1
397.5355	3
398.1841	5
398.2234	3
400.6755	4
402.1521	2
404.17	16
413.2079	12
416.17	4
434.1807	29
436.1965	183
444.0978	6
447.8351	3
447.8617	2
447.8906	3
447.9224	4
447.9416	3
447.9795	5
448.0038	4
448.0355	6
448.0629	5
448.0911	6
448.1961	999
448.2935	4
448.3218	6
448.3491	5
448.3789	5
448.4056	4
448.4365	4
448.4644	3
448.4935	3
448.5222	3
448.549	2
449.2009	13
452.352	5
542.2131	1
548.2263	2
559.2438	2
560.2263	15
577.2542	240
578.262	6
580.2535	7
591.2698	19
592.2544	21
609.2812	97
