Mass spectrum: 5-Hydroxy-L-tryptophan; LC-ESI-ITFT; MS2; CE: 60;  [M+H]+
Name: 5-Hydroxy-L-tryptophan
Class: Organoheterocyclic compounds; Indoles and derivatives; Tryptamines and derivatives
Formula: C11H12N2O3
Exact mass: 220.08479
SMILES: N[C@@H](CC1=CNC2=C1C=C(O)C=C2)C(O)=O
InChI: InChI=1S/C11H12N2O3/c12-9(11(15)16)3-6-5-13-10-2-1-7(14)4-8(6)10/h1-2,4-5,9,13-14H,3,12H2,(H,15,16)/t9-/m0/s1
Instrument: Thermo Scientific Q-Exactive Focus
Instrument type: LC-ESI-ITFT
Ms type: MS2
Ion mode: POSITIVE
Ionization: ESI
Collision energy: 60
Column name: Acquity CSHC18
Retention time: 2.014 min
Base peak: 221.09207
Precursor m/z: 221.09207
Precursor type: [M+H]+
m/z	relative intensity
53.0392	438
79.0547	414
89.0389	595
95.0495	999
103.0545	888
107.0494	406
115.0544	379
117.0574	470
130.0652	574
131.0492	393
