Mass spectrum: Ginkgolic acid C13:0; LC-ESI-QFT; MS2; CE: 15,30,45 (NCE);  [M+H]+
Name: Ginkgolic acid C13:0
Class: NA
Formula: C20H32O3
Exact mass: 320.2351
SMILES: CCCCCCCCCCCCCC1=C(C(O)=O)C(O)=CC=C1
InChI: InChI=1S/C20H32O3/c1-2-3-4-5-6-7-8-9-10-11-12-14-17-15-13-16-18(21)19(17)20(22)23/h13,15-16,21H,2-12,14H2,1H3,(H,22,23)
Instrument: QE Focus, Thermo Scientfic; UPLC I-Class, Waters
Instrument type: LC-ESI-QFT
Ms type: MS2
Ion mode: POSITIVE
Ionization: ESI
Collision energy: 15,30,45 (NCE)
Column name: Acquity CSHC18
Retention time: 6.473 min
Base peak: 321.2430
Precursor m/z: 321.2430
Precursor type: [M+H]+
Precursor intensity: 1215641
m/z	relative intensity
51.4792	23
55.0551	65
57.0707	52
57.186	26
58.2408	24
58.565	23
69.0706	55
71.0862	29
83.0861	110
97.1017	109
100.7479	29
107.0495	462
121.0647	30
121.5677	27
133.0649	391
135.044	116
145.0649	486
147.0802	287
149.0598	102
159.0806	255
161.0958	37
173.096	39
179.8529	28
187.1111	33
190.923	29
226.7868	25
259.8578	27
303.2317	999
321.2418	674
