Mass spectrum: Sinensetin; LC-ESI-ITFT; MS2; CE: 45eV;  [M+H]+
Name: Sinensetin
Class: Flavonoid
Formula: C20H20O7
Exact mass: 372.1209
SMILES: COC1=C(C=C(C=C1)C2=CC(=O)C3=C(C(=C(C=C3O2)OC)OC)OC)OC
InChI: InChI=1S/C20H20O7/c1-22-13-7-6-11(8-15(13)23-2)14-9-12(21)18-16(27-14)10-17(24-3)19(25-4)20(18)26-5/h6-10H,1-5H3
Instrument: LTQ Orbitrap XL, Thermo Scientfic; Dionex Ultimate 300
Instrument type: LC-ESI-ITFT
Ms type: MS2
Ion mode: POSITIVE
Ionization: ESI
Collision energy: 45eV
Column name: Alltima C18
Retention time: 19.22 min
Base peak: 373.1272
Precursor m/z: 373.1272
Precursor type: [M+H]+
m/z	relative intensity
283.1288	13
297.1939	2
310.0934	5
312.1257	999
322.141	1
325.1467	2
329.0974	319
340.1337	234
344.2097	39
