Mass spectrum: Apigenin 7-O-neohesperidoside; LC-ESI-QTOF; MS2; CE: 20-40eV;  [M+H]+
Name: Apigenin 7-O-neohesperidoside
Class: flavonoid
Formula: C27H30O14
Exact mass: 578.1636
SMILES: CC1(C(C(C(C(O1)(OC2(C(C(C(CO)(OC2(OC3=CC(=C4C(C=C(C5=CC=C(C=C5)O)OC4=C3)=O)O)[H])[H])(O)[H])(O)[H])[H])[H])(O)[H])(O)[H])(O)[H])[H]
InChI: InChI=1S/C27H30O14/c1-10-20(32)22(34)24(36)26(37-10)41-25-23(35)21(33)18(9-28)40-27(25)38-13-6-14(30)19-15(31)8-16(39-17(19)7-13)11-2-4-12(29)5-3-11/h2-8,10,18,20-30,32-36H,9H2,1H3
Instrument: Impact II, Bruker; Dionex 3000, Thermo Scientific
Instrument type: LC-ESI-QTOF
Ms type: MS2
Ion mode: POSITIVE
Ionization: ESI
Collision energy: 20-40eV
Column name: Acquity CSHC18
Retention time: 5.250 min
Base peak: 579.1693
Precursor m/z: 579.1693
Precursor type: [M+H]+
Precursor intensity: 4111.62
m/z	relative intensity
153.0175	26
163.0374	33
225.0538	18
247.1354	17
257.0791	66
271.0594	999
272.0628	166
273.0743	36
433.111	477
434.116	119
435.121	21
579.1709	71
