Mass spectrum: Methionine sulfoxide; ESI-TOF; MS2; CE: 0.6458333;  [M+H]+
Name: Methionine sulfoxide
Class: NA
Formula: C5H11NO3S
Exact mass: 165.04596
SMILES: CS(=O)CCC(N)C(O)=O
InChI: InChI=1S/C5H11NO3S/c1-10(9)3-2-4(6)5(7)8/h4H,2-3,6H2,1H3,(H,7,8)
Instrument: waters xevo g2 TOF
Instrument type: ESI-TOF
Ms type: MS2
Ion mode: POSITIVE
Ionization: ESI
Collision energy: 0.6458333
Column name: Acquity CSHC18
Retention time: 0.544 min
Base peak: 166.05396
Precursor m/z: 166.05396
Precursor type: [M+H]+
m/z	relative intensity
65.0065	79
74.0247	999
75.0276	160
85.0294	66
95.974	47
97.9691	2
100.9914	41
102.0556	298
106.9932	20
109.9694	43
119.976	2
121.0313	129
123.117	16
127.9792	77
128.9878	167
129.9593	2
131.0167	2
131.9511	2
148.044	2
149.0275	602
150.0299	2
151.0248	2
158.9577	43
159.9994	33
166.0539	235
167.0569	2
168.0506	2
174.9758	223
182.0492	2
188.0361	2
190.0352	2
192.9474	2
204.0015	115
205.988	2
208.0236	22
210.0169	2
217.1066	2
236.9758	185
243.9706	50
259.9634	35
323.0179	73
331.1003	19
340.0219	33
355.0589	2
369.0455	32
377.0366	17
382.0158	2
384.0114	241
385.0161	49
386.0094	2
387.0204	2
391.0267	26
397.31	2
549.0562	2
550.0594	2
551.0577	2
571.0384	2
572.0428	2
573.0387	2
603.9832	53
714.1037	2
752.0498	9
758.0671	2
770.0235	2
