Mass spectrum: Kaempferol-3-O-glucoside; LC-ESI-QTOF; MS2; CE: 50eV;  [M+H]+
Name: Kaempferol-3-O-glucoside
Class: Flavonol
Formula: C21H20O11
Exact mass: 448.1006
SMILES: C1=CC(=CC=C1C2=C(C(=O)C3=C(C=C(C=C3O2)O)O)OC4C(C(C(C(O4)CO)O)O)O)O
InChI: InChI=1S/C21H20O11/c22-7-13-15(26)17(28)18(29)21(31-13)32-20-16(27)14-11(25)5-10(24)6-12(14)30-19(20)8-1-3-9(23)4-2-8/h1-6,13,15,17-18,21-26,28-29H,7H2
Instrument: TIMS-TOF Pro, Bruker Daltonik; Elute UHPLC System, Bruker Daltonik
Instrument type: LC-ESI-QTOF
Ms type: MS2
Ion mode: POSITIVE
Ionization: ESI
Collision energy: 50eV
Column name: Acquity CSHC18
Retention time: 5.517 min
Base peak: 449.1038
Precursor m/z: 449.1038
Precursor type: [M+H]+
Precursor intensity: 6294.94
m/z	relative intensity
61.8533	11
81.0269	12
85.0283	36
96.918	8
101.0233	6
111.0069	18
121.0293	15
145.0439	7
147.0437	11
180.4042	3
191.0348	8
242.0538	9
286.9992	18
287.026	25
287.0529	999
288.0565	88
289.3046	5
