Mass spectrum: Oleoyl-L-carnitine hydrochloride; ESI-TOF; MS2; CE: 6.0000000;  [M+H]+
Name: Oleoyl-L-carnitine hydrochloride
Class: NA
Formula: C25H47NO4
Exact mass: 425.35051
SMILES: CCCCCCCC\C=C/CCCCCCCC(=O)O[C@H]([N+](C)(C)C)CCC([O-])=O
InChI: InChI=1S/C25H47NO4/c1-5-6-7-8-9-10-11-12-13-14-15-16-17-18-19-20-25(29)30-23(26(2,3)4)21-22-24(27)28/h12-13,23H,5-11,14-22H2,1-4H3/b13-12-/t23-/m0/s1
Instrument: waters xevo g2 TOF
Instrument type: ESI-TOF
Ms type: MS2
Ion mode: POSITIVE
Ionization: ESI
Collision energy: 6.0000000
Column name: Acquity CSHC18
Retention time: 4.764 min
Base peak: 426.35851
Precursor m/z: 426.35851
Precursor type: [M+H]+
m/z	relative intensity
269.1915	1
367.2857	2
389.2665	2
425.2447	1
426.4035	999
427.3016	44
428.365	140
429.368	10
430.3747	1
440.3739	1
448.3405	21
449.3443	3
462.4328	588
463.3386	360
464.333	461
465.3366	128
466.3394	21
467.3414	2
476.352	7
477.3552	1
478.3501	2
484.3168	11
485.3211	3
486.3155	7
510.3142	1
557.3046	1
658.5074	1
851.7094	25
852.7076	14
853.7167	4
873.6885	12
874.6918	4
878.6682	1
879.1705	1
879.6679	2
880.173	1
880.6637	1
887.6909	2
901.1638	2
901.6724	2
909.6681	1
923.662	3
924.6718	1
925.6577	2
926.6588	1
945.6459	2
947.6367	2
