Mass spectrum: naringin; LC-ESI-ITFT; MS2; CE: 0.3;  [M+H]+
Name: naringin
Class: flavanones
Formula: C27H32O14
Exact mass: 580.1792
SMILES: CC1C(C(C(C(O1)OC2C(C(C(OC2OC3=CC(=C4C(=O)CC(OC4=C3)C5=CC=C(C=C5)O)O)CO)O)O)O)O)O
InChI: InChI=1S/C27H32O14/c1-10-20(32)22(34)24(36)26(37-10)41-25-23(35)21(33)18(9-28)40-27(25)38-13-6-14(30)19-15(31)8-16(39-17(19)7-13)11-2-4-12(29)5-3-11/h2-7,10,16,18,20-30,32-36H,8-9H2,1H3
Instrument: LTQ-Orbitrap XL hybrid mass spectrometer (Thermo Scientific)
Instrument type: LC-ESI-ITFT
Ms type: MS2
Ion mode: POSITIVE
Ionization: ESI
Collision energy: 0.3
Column name: Acquity CSHC18
Retention time: 7.561 min
Base peak: 581.1875
Precursor m/z: 581.1875
Precursor type: [M+H]+
Precursor intensity: 8493535
m/z	relative intensity
161.2016	64
163.1665	20
167.2235	21
167.6808	37
170.4288	23
171.5995	22
174.7085	20
178.3055	24
185.2847	20
185.4439	20
189.3303	23
195.0295	42
196.0385	25
196.1177	120
203.619	19
206.5706	22
218.1894	19
227.3297	23
260.5625	23
264.3451	20
271.0611	64
272.0641	47
273.0766	373
276.3941	18
286.5834	82
286.5918	24
306.3489	20
315.0873	331
323.4376	24
323.7516	28
339.0873	105
369.0981	28
381.0978	80
383.1134	222
399.1085	60
401.1242	238
417.1189	999
418.4161	24
419.1346	925
425.124	26
435.1295	993
443.1347	105
457.1517	26
459.1294	259
461.1451	103
478.5457	24
478.5679	24
478.5876	20
497.1448	43
509.1451	63
510.3474	18
527.1559	241
545.1663	385
563.1769	303
577.0266	16
