Mass spectrum: Biotin; LC-ESI-ITFT; MS2; CE: 60;  [M-H]-
Name: Biotin
Class: Organoheterocyclic compounds; Biotin and derivatives
Formula: C10H16N2O3S
Exact mass: 244.08816
SMILES: [H][C@]12CS[C@@H](CCCCC(O)=O)[C@@]1([H])NC(=O)N2
InChI: InChI=1S/C10H16N2O3S/c13-8(14)4-2-1-3-7-9-6(5-16-7)11-10(15)12-9/h6-7,9H,1-5H2,(H,13,14)(H2,11,12,15)/t6-,7-,9-/m0/s1
Instrument: Thermo Scientific Q-Exactive Focus
Instrument type: LC-ESI-ITFT
Ms type: MS2
Ion mode: NEGATIVE
Ionization: ESI
Collision energy: 60
Column name: Acquity CSHC18
Retention time: 2.027 min
Base peak: 243.08089
Precursor m/z: 243.08089
Precursor type: [M-H]-
m/z	relative intensity
70.9822	401
71.6041	400
71.9901	440
77.0032	429
78.5838	424
87.7061	405
92.5156	999
102.2917	433
106.9288	417
241.1857	436
