Mass spectrum: Tricetin; LC-ESI-QTOF; MS2; CE: 50eV;  [M+H]+
Name: Tricetin
Class: Falvone
Formula: C15H10O7
Exact mass: 302.0427
SMILES: C1=C(C=C(C(=C1O)O)O)C2=CC(=O)C3=C(C=C(C=C3O2)O)O
InChI: InChI=1S/C15H10O7/c16-7-3-8(17)14-9(18)5-12(22-13(14)4-7)6-1-10(19)15(21)11(20)2-6/h1-5,16-17,19-21H
Instrument: TIMS-TOF Pro, Bruker Daltonik; Elute UHPLC System, Bruker Daltonik
Instrument type: LC-ESI-QTOF
Ms type: MS2
Ion mode: POSITIVE
Ionization: ESI
Collision energy: 50eV
Column name: Acquity CSHC18
Retention time: 6.049 min
Base peak: 303.0457
Precursor m/z: 303.0457
Precursor type: [M+H]+
Precursor intensity: 260522
m/z	relative intensity
39.0241	1
42.3345	2
67.0065	1
67.0182	6
77.037	1
79.0187	3
97.0227	2
105.0315	10
111.0018	1
114.048	1
115.0533	5
119.3871	2
121.0275	2
125.0221	3
127.0527	2
151.0375	4
153.0172	42
155.0474	4
160.1741	2
173.0225	5
176.0367	1
177.0148	6
183.0436	2
200.0262	2
201.0553	5
203.0331	16
204.0359	2
207.0361	2
229.0516	5
257.0145	1
274.0421	1
302.822	2
302.9987	18
303.0457	999
303.333	1
303.5431	6
