Mass spectrum: Malondialdehyde; LC-ESI-ITFT; MS2; CE: 10;  [M+H]+
Name: Malondialdehyde
Class: Organic oxygen compounds; Organooxygen compounds; Carbonyl compounds
Formula: C3H4O2
Exact mass: 72.02113
SMILES: O=CCC=O
InChI: InChI=1S/C3H4O2/c4-2-1-3-5/h2-3H,1H2
Instrument: Thermo Scientific Q-Exactive Focus
Instrument type: LC-ESI-ITFT
Ms type: MS2
Ion mode: POSITIVE
Ionization: ESI
Collision energy: 10
Column name: Acquity CSHC18
Retention time: 0.348 min
Base peak: 73.02841
Precursor m/z: 73.02841
Precursor type: [M+H]+
m/z	relative intensity
53.861	1
55.0548	1
57.1958	1
58.9026	1
59.6932	1
66.8134	1
73.0289	999
73.0846	1
74.4136	1
86.1396	1
