Mass spectrum: L-Histidine; LC-ESI-ITFT; MS2; CE: 100;  [M-H]-
Name: L-Histidine
Class: Organic acids and derivatives; Carboxylic acids and derivatives; Amino acids, peptides, and analogues
Formula: C6H9N3O2
Exact mass: 155.06948
SMILES: N[C@@H](CC1=CN=CN1)C(O)=O
InChI: InChI=1S/C6H9N3O2/c7-5(6(10)11)1-4-2-8-3-9-4/h2-3,5H,1,7H2,(H,8,9)(H,10,11)/t5-/m0/s1
Instrument: Thermo Scientific Q-Exactive Focus
Instrument type: LC-ESI-ITFT
Ms type: MS2
Ion mode: NEGATIVE
Ionization: ESI
Collision energy: 100
Column name: Acquity CSHC18
Retention time: 2.583 min
Base peak: 154.06219
Precursor m/z: 154.06219
Precursor type: [M-H]-
m/z	relative intensity
50.2977	902
59.5684	900
69.6848	894
71.3581	926
109.295	942
130.294	941
137.9989	999
150.9874	932
154.87	992
155.2441	932
