Mass spectrum: Chlorogenic acid; LC-ESI-QTOF; MS2; CE: 15.00;  [M-C7H12O6+H]+
Name: Chlorogenic acid
Class: NA
Formula: C16H18O9
Exact mass: 354.0951
SMILES: C1C(C(C(CC1(C(=O)O)O)OC(=O)C=CC2=CC(=C(C=C2)O)O)O)O
InChI: InChI=1S/C16H18O9/c17-9-3-1-8(5-10(9)18)2-4-13(20)25-12-7-16(24,15(22)23)6-11(19)14(12)21/h1-5,11-12,14,17-19,21,24H,6-7H2,(H,22,23)
Instrument: Bruker MicrOTOF-Q
Instrument type: LC-ESI-QTOF
Ms type: MS2
Ion mode: POSITIVE
Ionization: ESI
Collision energy: 15.00
Column name: Acquity CSHC18
Retention time: NA
Base peak: 163.0390
Precursor m/z: 163.0390
Precursor type: [M-C7H12O6+H]+
m/z	relative intensity
89.03	193
102.2	84
107.05	245
117.03	999
118.05	98
134.04	77
135.04	995
145.03	105
163.04	421
164.04	125
