Mass spectrum: Guanine; LC-ESI-ITFT; MS2; CE: 20;  [M-H]-
Name: Guanine
Class: Organoheterocyclic compounds; Imidazopyrimidines; Purines and purine derivatives
Formula: C5H5N5O
Exact mass: 151.04941
SMILES: NC1=NC(=O)C2=C(N1)N=CN2
InChI: InChI=1S/C5H5N5O/c6-5-9-3-2(4(11)10-5)7-1-8-3/h1H,(H4,6,7,8,9,10,11)
Instrument: Thermo Scientific Q-Exactive Focus
Instrument type: LC-ESI-ITFT
Ms type: MS2
Ion mode: NEGATIVE
Ionization: ESI
Collision energy: 20
Column name: Acquity CSHC18
Retention time: 0.647 min
Base peak: 150.04213
Precursor m/z: 150.04213
Precursor type: [M-H]-
m/z	relative intensity
66.0086	413
78.0085	75
90.0085	53
93.9595	173
94.9558	56
107.0352	97
121.9544	72
126.0298	320
133.0145	999
151.025	79
