Mass spectrum: Kaempferol-3-O-rutinoside; LC-ESI-QTOF; MS2; CE: 50eV;  [M+H]+
Name: Kaempferol-3-O-rutinoside
Class: Flavonol
Formula: C27H30O15
Exact mass: 594.1585
SMILES: CC1C(C(C(C(O1)OCC2C(C(C(C(O2)OC3=C(OC4=CC(=CC(=C4C3=O)O)O)C5=CC=C(C=C5)O)O)O)O)O)O)O
InChI: InChI=1S/C27H30O15/c1-9-17(31)20(34)22(36)26(39-9)38-8-15-18(32)21(35)23(37)27(41-15)42-25-19(33)16-13(30)6-12(29)7-14(16)40-24(25)10-2-4-11(28)5-3-10/h2-7,9,15,17-18,20-23,26-32,34-37H,8H2,1H3
Instrument: TIMS-TOF Pro, Bruker Daltonik; Elute UHPLC System, Bruker Daltonik
Instrument type: LC-ESI-QTOF
Ms type: MS2
Ion mode: POSITIVE
Ionization: ESI
Collision energy: 50eV
Column name: Acquity CSHC18
Retention time: 5.323 min
Base peak: 595.1638
Precursor m/z: 595.1638
Precursor type: [M+H]+
Precursor intensity: 66081.5
m/z	relative intensity
34.3469	1
57.0321	5
69.0357	1
71.0487	17
75.0432	1
85.0283	53
86.032	2
97.0181	1
99.043	2
111.0455	2
115.0382	1
127.0369	6
129.0549	35
140.6976	1
145.048	4
147.0652	34
231.2352	1
255.0884	1
286.7795	1
286.887	2
286.9542	2
286.9864	2
287.0268	37
287.0509	999
287.3306	2
287.5377	9
287.8176	1
287.9952	1
288.0302	7
288.0383	8
289.0247	1
289.0598	18
310.1228	1
397.0754	1
433.1093	2
449.0699	7
449.1069	122
450.1061	19
451.1131	3
595.1638	2
