Mass spectrum: 2-hydroxycinnamic acid; LC-ESI-QFT; MS2; CE: NCE_15_30_46;  [M-H]-
Name: 2-hydroxycinnamic acid
Class: NA
Formula: C9H8O3
Exact mass: 164.0473
SMILES: C1=CC=C(C(=C1)C=CC(=O)O)O
InChI: InChI=1S/C9H8O3/c10-8-4-2-1-3-7(8)5-6-9(11)12/h1-6,10H,(H,11,12)
Instrument: Thermo_Qexactive_Plus
Instrument type: LC-ESI-QFT
Ms type: MS2
Ion mode: NEGATIVE
Ionization: ESI
Collision energy: NCE_15_30_46
Column name: Acquity CSHC18
Retention time: 4.702 min
Base peak: 163.0390
Precursor m/z: 163.0390
Precursor type: [M-H]-
Precursor intensity: 973806700
m/z	relative intensity
71.0147	128
75.0969	138
77.1272	146
78.0385	146
98.3267	155
111.7448	167
119.0485	267
127.9348	999
