Mass spectrum: m-coumaric acid; LC-ESI-QTOF; MS2; CE: 15.00;  [M-H2O+H]+
Name: m-coumaric acid
Class: NA
Formula: C9H8O3
Exact mass: 164.0473
SMILES: C1=CC(=CC(=C1)O)C=CC(=O)O
InChI: InChI=1S/C9H8O3/c10-8-3-1-2-7(6-8)4-5-9(11)12/h1-6,10H,(H,11,12)
Instrument: Bruker MicrOTOF-Q
Instrument type: LC-ESI-QTOF
Ms type: MS2
Ion mode: POSITIVE
Ionization: ESI
Collision energy: 15.00
Column name: Acquity CSHC18
Retention time: NA
Base peak: 147.0441
Precursor m/z: 147.0441
Precursor type: [M-H2O+H]+
m/z	relative intensity
100.1487	3
119.0473	381
120.0513	59
123.0473	4
135.3875	1
146.3915	3
146.794	3
146.912	4
147.043	999
147.1977	4
147.2498	2
147.5395	1
147.9178	2
148.046	112
149.0446	6
163.0381	3
164.028	2
253.087	2
463.454	3
