Mass spectrum: Piceid; LC-ESI-QFT; MS2; CE: NCE_15_30_83;  [M-H]-
Name: Piceid
Class: NA
Formula: C20H22O8
Exact mass: 390.1315
SMILES: C1=CC(=CC=C1C=CC2=CC(=CC(=C2)OC3C(C(C(C(O3)CO)O)O)O)O)O
InChI: InChI=1S/C20H22O8/c21-10-16-17(24)18(25)19(26)20(28-16)27-15-8-12(7-14(23)9-15)2-1-11-3-5-13(22)6-4-11/h1-9,16-26H,10H2
Instrument: Thermo_Qexactive_Plus
Instrument type: LC-ESI-QFT
Ms type: MS2
Ion mode: NEGATIVE
Ionization: ESI
Collision energy: NCE_15_30_83
Column name: Acquity CSHC18
Retention time: 4.428 min
Base peak: 389.1249
Precursor m/z: 389.1249
Precursor type: [M-H]-
Precursor intensity: 310406900
m/z	relative intensity
54.3379	4
60.7268	5
69.2949	5
115.2822	5
138.9398	5
143.0497	5
157.0651	6
159.0812	6
183.0815	7
185.0606	7
186.0639	10
209.8929	10
211.0644	10
225.0546	14
227.0712	32
228.0741	33
234.4667	75
273.5922	76
389.1226	999
