Mass spectrum: (+)-5-trans Cloprostenol; ESI-TOF; MS2; CE: 0.6458333;  [M+H]+
Name: (+)-5-trans Cloprostenol
Class: NA
Formula: C22H29ClO6
Exact mass: 424.16527
SMILES: OC1[C@H](C/C=C/CCCC(O)=O)[C@@H](/C=C/[C@@H](O)COC2=CC(Cl)=CC=C2)C(O)C1
InChI: InChI=1S/C22H29ClO6/c23-15-6-5-7-17(12-15)29-14-16(24)10-11-19-18(20(25)13-21(19)26)8-3-1-2-4-9-22(27)28/h1,3,5-7,10-12,16,18-21,24-26H,2,4,8-9,13-14H2,(H,27,28)/b3-1+,11-10+/t16-,18-,19-,20?,21?/m1/s1
Instrument: waters xevo g2 TOF
Instrument type: ESI-TOF
Ms type: MS2
Ion mode: POSITIVE
Ionization: ESI
Collision energy: 0.6458333
Column name: Acquity CSHC18
Retention time: 3.502 min
Base peak: 425.17327
Precursor m/z: 425.17327
Precursor type: [M+H]+
m/z	relative intensity
71.0508	59
83.0492	528
115.0545	264
116.0612	112
117.0708	999
119.0863	441
131.0865	800
132.0886	56
133.1016	196
141.0407	667
142.0768	230
143.0862	637
147.1177	125
153.0484	190
154.0798	203
156.0939	86
157.101	402
161.0961	345
165.0528	207
166.0785	269
168.0945	208
169.1014	623
171.119	280
179.0955	249
181.1045	495
184.1188	86
189.1265	79
191.0953	75
197.1299	222
201.1271	154
215.143	133
219.1389	53
225.1273	552
226.131	72
243.1385	585
245.1517	52
261.1476	434
279.1592	371
280.1653	44
332.0712	337
333.0792	136
373.1426	50
388.0546	241
389.0584	56
390.0501	56
406.0644	66
416.0492	78
