Mass spectrum: CITRAMALATE; LC-ESI-QTOF; MS2; CE: 40;  [M-H]-
Name: CITRAMALATE
Class: NA
Formula: C5H8O5
Exact mass: 148.03717
SMILES: CC(O)(CC(O)=O)C(O)=O
InChI: InChI=1S/C5H8O5/c1-5(10,4(8)9)2-3(6)7/h10H,2H2,1H3,(H,6,7)(H,8,9)
Instrument: Agilent 6530Â Q-TOF LC/MS
Instrument type: LC-ESI-QTOF
Ms type: MS2
Ion mode: NEGATIVE
Ionization: ESI
Collision energy: 40
Column name: NA
Retention time: 0.200 min
Base peak: 147.02875
Precursor m/z: 147.02875
Precursor type: [M-H]-
Precursor intensity: 172
m/z	relative intensity
41.0217	135
43.0178	560
57.0436	999
