Mass spectrum: Picolinic acid; LC-ESI-ITFT; MS2; CE: 60;  [M-H]-
Name: Picolinic acid
Class: Organoheterocyclic compounds; Pyridines and derivatives; Pyridinecarboxylic acids and derivatives
Formula: C6H5NO2
Exact mass: 123.03203
SMILES: OC(=O)C1=CC=CC=N1
InChI: InChI=1S/C6H5NO2/c8-6(9)5-3-1-2-4-7-5/h1-4H,(H,8,9)
Instrument: Thermo Scientific Q-Exactive Focus
Instrument type: LC-ESI-ITFT
Ms type: MS2
Ion mode: NEGATIVE
Ionization: ESI
Collision energy: 60
Column name: Acquity CSHC18
Retention time: 2.027 min
Base peak: 122.02475
Precursor m/z: 122.02475
Precursor type: [M-H]-
m/z	relative intensity
57.9745	410
61.9871	999
75.2871	136
77.3167	131
92.5138	167
104.3732	137
114.1558	148
117.7649	136
124.0996	155
133.1029	132
