Mass spectrum: 3-Nitrotyrosine; LC-ESI-ITFT; MS2; CE: 100;  [M+H]+
Name: 3-Nitrotyrosine
Class: Organic acids and derivatives; Carboxylic acids and derivatives; Amino acids, peptides, and analogues
Formula: C9H10N2O5
Exact mass: 226.05897
SMILES: N[C@@H](CC1=CC=C(O)C(=C1)[N+]([O-])=O)C(O)=O
InChI: InChI=1S/C9H10N2O5/c10-6(9(13)14)3-5-1-2-8(12)7(4-5)11(15)16/h1-2,4,6,12H,3,10H2,(H,13,14)/t6-/m0/s1
Instrument: Thermo Scientific Q-Exactive Focus
Instrument type: LC-ESI-ITFT
Ms type: MS2
Ion mode: POSITIVE
Ionization: ESI
Collision energy: 100
Column name: Acquity CSHC18
Retention time: 2.570 min
Base peak: 227.06625
Precursor m/z: 227.06625
Precursor type: [M+H]+
m/z	relative intensity
50.0157	472
51.0235	999
53.0028	494
53.0391	300
62.0156	357
63.0234	810
65.039	496
77.039	143
89.0389	248
95.0494	342
