Mass spectrum: N-Alpha-acetyllysine; LC-ESI-ITFT; MS2; CE: 20;  [M+H]+
Name: N-Alpha-acetyllysine
Class: Organic acids and derivatives; Carboxylic acids and derivatives; Amino acids, peptides, and analogues
Formula: C8H16N2O3
Exact mass: 188.11609
SMILES: CC(=O)NC(CCCCN)C(O)=O
InChI: InChI=1S/C8H16N2O3/c1-6(11)10-7(8(12)13)4-2-3-5-9/h7H,2-5,9H2,1H3,(H,10,11)(H,12,13)
Instrument: Thermo Scientific Q-Exactive Focus
Instrument type: LC-ESI-ITFT
Ms type: MS2
Ion mode: POSITIVE
Ionization: ESI
Collision energy: 20
Column name: Acquity CSHC18
Retention time: 0.630 min
Base peak: 189.12337
Precursor m/z: 189.12337
Precursor type: [M+H]+
m/z	relative intensity
56.0501	10
67.0547	10
84.0813	999
85.0652	16
101.1076	7
102.0917	9
126.0915	17
129.1024	156
130.0864	144
147.1128	12
