Mass spectrum: N-ACETYLPROLINE; LC-ESI-QTOF; MS2; CE: 20;  [M+H]+
Name: N-ACETYLPROLINE
Class: NA
Formula: C7H11NO3
Exact mass: 157.07389
SMILES: [H][C@]1(CCCN1C(C)=O)C(O)=O
InChI: InChI=1S/C7H11NO3/c1-5(9)8-4-2-3-6(8)7(10)11/h6H,2-4H2,1H3,(H,10,11)/t6-/m0/s1
Instrument: Agilent 6530Â Q-TOF LC/MS
Instrument type: LC-ESI-QTOF
Ms type: MS2
Ion mode: POSITIVE
Ionization: ESI
Collision energy: 20
Column name: NA
Retention time: 0.200 min
Base peak: 158.08171
Precursor m/z: 158.08171
Precursor type: [M+H]+
Precursor intensity: 79.5
m/z	relative intensity
41.0094	20
43.0537	21
43.2589	23
46.0233	23
58.0655	24
59.0457	26
68.0612	28
70.5899	31
71.3167	32
71.6147	34
71.6971	35
84.074	91
112.1041	322
116.1047	489
116.7076	502
158.1105	999
