Mass spectrum: 5,6 DIMETHYLBENZIMIDAZOLE; LC-ESI-QFT; MS2; CE: 30eV;  [M+H]+
Name: 5,6 DIMETHYLBENZIMIDAZOLE
Class: NA
Formula: C9H10N2
Exact mass: 146.08440
SMILES: CC1=CC2=C(C=C1C)N=CN2
InChI: InChI=1S/C9H10N2/c1-6-3-8-9(4-7(6)2)11-5-10-8/h3-5H,1-2H3,(H,10,11)
Instrument: Q-Exactive Orbitrap, Thermo Scientfic; Ultimate 3000 HPLC, Thermo Scientfic
Instrument type: LC-ESI-QFT
Ms type: MS2
Ion mode: POSITIVE
Ionization: ESI
Collision energy: 30eV
Column name: Acquity CSHC18
Retention time: 5.978 min
Base peak: 147.0917
Precursor m/z: 147.0917
Precursor type: [M+H]+
Precursor intensity: 188
m/z	relative intensity
53.7776	10
55.8949	13
66.5599	10
70.7666	11
75.1048	16
94.0399	12
97.85	11
98.7677	11
103.8403	10
104.3488	13
114.9043	11
115.1331	12
120.0809	50
120.9933	12
123.9645	77
130.0132	14
131.0603	78
132.068	98
146.1813	27
148.0889	76
148.0949	999
