Mass spectrum: Quercetin; LC-ESI-QTOF; MS2; CE: 50eV;  [M-H]-
Name: Quercetin
Class: Flavonol
Formula: C15H10O7
Exact mass: 302.0427
SMILES: C1=CC(=C(C=C1C2=C(C(=O)C3=C(C=C(C=C3O2)O)O)O)O)O
InChI: InChI=1S/C15H10O7/c16-7-4-10(19)12-11(5-7)22-15(14(21)13(12)20)6-1-2-8(17)9(18)3-6/h1-5,16-19,21H
Instrument: TIMS-TOF Pro, Bruker Daltonik; Elute UHPLC System, Bruker Daltonik
Instrument type: LC-ESI-QTOF
Ms type: MS2
Ion mode: NEGATIVE
Ionization: ESI
Collision energy: 50eV
Column name: Acquity CSHC18
Retention time: 6.738 min
Base peak: 301.0286
Precursor m/z: 301.0286
Precursor type: [M-H]-
Precursor intensity: 60256
m/z	relative intensity
19.6882	1
24.6053	2
30.1652	2
39.6975	2
41.0035	25
48.995	1
52.2718	2
56.5083	3
59.0115	2
63.0224	101
63.4801	2
64.0265	9
64.9355	2
65.0016	232
66.0046	7
67.0179	7
68.5837	2
79.0178	3
80.0246	2
82.0086	2
83.0126	133
83.6704	1
85.3095	2
89.0026	4
92.0251	3
93.0337	111
94.0371	7
95.0121	8
96.0198	10
102.3377	2
107.0124	75
107.6118	1
108.0195	28
108.9902	6
109.1812	1
110.033	1
111.8349	2
117.0295	2
118.11	3
121.0271	277
121.3482	1
121.7898	2
122.03	15
122.4589	1
124.0132	7
125.0231	3
130.0424	1
132.0187	3
133.0279	21
134.0336	2
135.0431	6
136.1889	2
137.0551	2
138.2946	2
141.8382	2
144.6196	4
145.0636	2
148.0125	3
149.0213	21
149.9853	3
151.0008	338
151.2489	1
151.4952	2
151.6564	1
152.0061	12
155.0145	2
159.0392	6
161.0198	1
162.0298	4
163.0006	6
164.0087	7
167.0434	1
169.0055	2
173.0241	2
174.0294	2
177.9786	2
178.9961	183
179.9995	21
180.2069	1
181.0312	2
183.4236	3
186.9101	1
193.0121	7
200.0408	2
205.0425	1
229.0476	8
230.0198	2
231.0277	2
239.0333	2
243.0233	3
245.0406	6
252.1078	2
255.0228	3
257.0386	7
258.0508	1
273.0363	57
274.0377	6
283.0158	1
300.8316	1
300.9438	1
301.0313	999
301.4021	2
