Mass spectrum: sn-Glycerol 3-phosphate; LC-ESI-QTOF; MS2; CE: -10, -35, -60V;  [M-H]-
Name: sn-Glycerol 3-phosphate
Class: NA
Formula: C3H9O6P
Exact mass: 172.0137
SMILES: C(C(COP(=O)(O)O)O)O
InChI: InChI=1S/C3H9O6P/c4-1-3(5)2-9-10(6,7)8/h3-5H,1-2H2,(H2,6,7,8)
Instrument: TripleToF 5600; Sciex
Instrument type: LC-ESI-QTOF
Ms type: MS2
Ion mode: NEGATIVE
Ionization: ESI
Collision energy: -10, -35, -60V
Column name: Acquity CSHC18
Retention time: 5.707 min
Base peak: 171.0074
Precursor m/z: 171.0074
Precursor type: [M-H]-
Precursor intensity: 333363.2
m/z	relative intensity
78.9595	999
96.9692	13
171.0066	59
