Mass spectrum: L-Palmitoylcarnitine; LC-ESI-ITFT; MS2; CE: 10;  [M+H]+
Name: L-Palmitoylcarnitine
Class: Lipids and lipid-like molecules; Fatty Acyls; Fatty acid esters
Formula: C23H45NO4
Exact mass: 399.33486
SMILES: CCCCCCCCCCCCCCCC(=O)O[C@H](CC([O-])=O)C[N+](C)(C)C
InChI: InChI=1S/C23H45NO4/c1-5-6-7-8-9-10-11-12-13-14-15-16-17-18-23(27)28-21(19-22(25)26)20-24(2,3)4/h21H,5-20H2,1-4H3/t21-/m1/s1
Instrument: Thermo Scientific Q-Exactive Focus
Instrument type: LC-ESI-ITFT
Ms type: MS2
Ion mode: POSITIVE
Ionization: ESI
Collision energy: 10
Column name: Acquity CSHC18
Retention time: 0.348 min
Base peak: 400.34213
Precursor m/z: 400.34213
Precursor type: [M+H]+
m/z	relative intensity
60.0812	6
85.0264	1
85.0287	31
239.2364	1
341.268	15
400.3298	75
400.3419	999
