Mass spectrum: Nicotinic acid; LC-ESI-QTOF; MS2; CE: 10;  [M+H]+
Name: Nicotinic acid
Class: NA
Formula: C6H5NO2
Exact mass: 123.03203
SMILES: C1=CC(=CN=C1)C(=O)O
InChI: InChI=1S/C6H5NO2/c8-6(9)5-2-1-3-7-4-5/h1-4H,(H,8,9)
Instrument: impact II
Instrument type: LC-ESI-QTOF
Ms type: MS2
Ion mode: POSITIVE
Ionization: ESI
Collision energy: 10
Column name: Acquity CSHC18
Retention time: 1.791 min
Base peak: 124.03910
Precursor m/z: 124.03910
Precursor type: [M+H]+
m/z	relative intensity
78.0339	12
80.0496	20
81.0527	1
84.9602	5
96.0448	2
106.0285	6
122.0232	1
122.0964	1
124.039	999
124.0528	85
124.0888	7
124.118	11
124.1284	23
124.1439	6
124.1825	2
124.1912	4
124.2331	1
124.2413	1
124.364	1
124.3899	1
125.0423	64
125.0555	1
126.044	4
127.0723	2
