Mass spectrum: 6-Methoxy-3H-1,3-benzoxazol-2-one; LC-ESI-ITFT; MS2; CE: 45eV;  [M+H]+
Name: 6-Methoxy-3H-1,3-benzoxazol-2-one
Class: benzoxazinoid
Formula: C8H7NO3
Exact mass: 165.0426
SMILES: COC1=CC2=C(C=C1)NC(=O)O2
InChI: InChI=1S/C8H7NO3/c1-11-5-2-3-6-7(4-5)12-8(10)9-6/h2-4H,1H3,(H,9,10)
Instrument: LTQ Orbitrap XL, Thermo Scientfic; Dionex Ultimate 300
Instrument type: LC-ESI-ITFT
Ms type: MS2
Ion mode: POSITIVE
Ionization: ESI
Collision energy: 45eV
Column name: Alltima C18
Retention time: 17.47 min
Base peak: 166.0490
Precursor m/z: 166.0490
Precursor type: [M+H]+
m/z	relative intensity
76.8587	5
108.0441	2
109.8549	908
121.8894	999
130.3543	6
133.9113	51
147.8772	23
