Mass spectrum: C18:1 Lyso PAF; ESI-TOF; MS2; CE: 6.0000000;  [M+H]+
Name: C18:1 Lyso PAF
Class: NA
Formula: C26H54NO6P
Exact mass: 507.36888
SMILES: [H]OC([H])(C([H])([H])OC([H])([H])C([H])([H])C([H])([H])C([H])([H])C([H])([H])C([H])([H])C([H])([H])C([H])([H])C([H])=C([H])C([H])([H])C([H])([H])C([H])([H])C([H])([H])C([H])([H])C([H])([H])C([H])([H])C([H])([H])[H])C([H])([H])OP(=O)([O-])OC([H])([H])C([H])([H])[N+](C([H])([H])[H])(C([H])([H])[H])C([H])([H])[H]
InChI: InChI=1S/C26H54NO6P/c1-5-6-7-8-9-10-11-12-13-14-15-16-17-18-19-20-22-31-24-26(28)25-33-34(29,30)32-23-21-27(2,3)4/h12-13,26,28H,5-11,14-25H2,1-4H3
Instrument: waters xevo g2 TOF
Instrument type: ESI-TOF
Ms type: MS2
Ion mode: POSITIVE
Ionization: ESI
Collision energy: 6.0000000
Column name: Acquity CSHC18
Retention time: 7.752 min
Base peak: 508.37688
Precursor m/z: 508.37688
Precursor type: [M+H]+
m/z	relative intensity
104.1078	14
105.1109	1
184.074	21
245.6539	16
246.1545	4
265.6774	5
273.6665	768
274.1683	241
274.6718	50
275.1691	4
275.6636	8
281.1509	4
281.6514	14
282.6521	11
283.6504	4
312.0293	7
364.5544	5
443.2238	16
490.3649	2
508.3763	999
509.3805	613
