Mass spectrum: Vincadifformine; ESI-QTOF; MS2; CE: 30 eV;  [M+H]+
Name: Vincadifformine
Class: NA
Formula: C21H26N2O2
Exact mass: 338.1994
SMILES: CCC12CCCN3CCC4(C5=CC=CC=C5NC4=C(C1)C(=O)OC)C23[H]
InChI: InChI=1S/C21H26N2O2/c1-3-20-9-6-11-23-12-10-21(19(20)23)15-7-4-5-8-16(15)22-17(21)14(13-20)18(24)25-2/h4-5,7-8,19,22H,3,6,9-13H2,1-2H3
Instrument: Synapt (HDMS 1st gen)
Instrument type: ESI-QTOF
Ms type: MS2
Ion mode: POSITIVE
Ionization: ESI
Collision energy: 30 eV
Column name: Acquity CSHC18
Retention time: 14.092 min
Base peak: 339.2078
Precursor m/z: 339.2078
Precursor type: [M+H]+
Precursor intensity: 544.95
m/z	relative intensity
307.1821	754
308.1869	185
339.2083	999
