Mass spectrum: dihydromorin; LC-ESI-ITFT; MS2; CE: 0.3;  [M+H]+
Name: dihydromorin
Class: flavonols
Formula: C15H12O7
Exact mass: 304.0583
SMILES: C1=CC(=C(C=C1O)O)C2C(C(=O)C3=C(C=C(C=C3O2)O)O)O
InChI: InChI=1S/C15H12O7/c16-6-1-2-8(9(18)3-6)15-14(21)13(20)12-10(19)4-7(17)5-11(12)22-15/h1-5,14-19,21H
Instrument: LTQ-Orbitrap XL hybrid mass spectrometer (Thermo Scientific)
Instrument type: LC-ESI-ITFT
Ms type: MS2
Ion mode: POSITIVE
Ionization: ESI
Collision energy: 0.3
Column name: Acquity CSHC18
Retention time: 5.575 min
Base peak: 305.0643
Precursor m/z: 305.0643
Precursor type: [M+H]+
Precursor intensity: 2710178
m/z	relative intensity
84.5475	2
89.4074	2
89.4331	2
104.5247	2
107.1344	2
116.9645	2
117.0862	3
117.7232	2
117.7837	2
121.1779	2
122.9117	2
124.016	2
124.2199	2
127.0376	3
130.2209	2
133.7419	2
135.4991	3
137.3397	2
139.9598	2
143.8079	2
143.915	4
144.7523	2
145.7276	2
146.8359	3
148.1155	3
148.7483	2
151.0378	4
152.9226	5
153.0173	999
153.0622	4
161.4291	2
162.8007	3
166.9355	4
167.3702	2
169.3939	2
172.4596	3
174.247	3
179.0329	26
181.8091	3
182.9343	4
184.0698	3
189.1472	3
189.9753	2
194.1707	3
195.0279	28
197.9871	3
202.0292	3
205.5676	3
207.1756	3
209.8495	3
217.6265	3
220.0848	4
220.6244	3
221.3724	3
222.8394	3
224.405	3
226.756	3
229.0021	3
229.4677	3
231.8495	3
235.4445	3
235.5131	4
236.3246	3
237.396	4
240.6018	3
254.4917	3
254.7051	4
259.059	78
261.6552	4
270.0183	3
271.986	3
276.1858	3
277.7827	3
280.5446	3
287.054	247
291.4115	3
292.7096	3
296.0542	4
300.6205	4
302.5556	3
302.5824	3
304.1021	3
304.1206	3
305.3636	3
