Mass spectrum: Cytidine; LC-ESI-QTOF; MS2; CE: 15;  [M-H]-
Name: Cytidine
Class: NA
Formula: C9H13N3O5
Exact mass: 243.0855
SMILES: C1=CN(C(=O)N=C1N)C2C(C(C(O2)CO)O)O
InChI: InChI=1S/C9H13N3O5/c10-5-1-2-12(9(16)11-5)8-7(15)6(14)4(3-13)17-8/h1-2,4,6-8,13-15H,3H2,(H2,10,11,16)
Instrument: Bruker MicrOTOF-Q
Instrument type: LC-ESI-QTOF
Ms type: MS2
Ion mode: NEGATIVE
Ionization: ESI
Collision energy: 15
Column name: Acquity CSHC18
Retention time: NA
Base peak: 242.0782
Precursor m/z: 242.0782
Precursor type: [M-H]-
m/z	relative intensity
47.4329	123
47.9284	104
50.6892	100
51.0233	95
52.6032	141
59.8423	177
63.0309	241
65.7465	145
93.2632	91
93.4379	136
94.9083	114
98.8674	145
104.2062	114
108.5589	168
109.0431	999
109.932	200
110.0377	679
110.3211	118
119.1464	123
121.3192	95
123.7674	155
143.2258	159
148.516	114
152.0515	132
157.2371	173
174.1844	100
231.6044	100
242.0712	155
320.1625	118
334.8121	132
335.6212	136
340.4604	141
350.1773	95
449.7092	91
494.2433	100
582.8751	114
734.2517	123
753.7864	150
781.4306	114
783.3535	155
942.3215	145
