Mass spectrum: Ajmaline; ESI-QTOF; MS2; CE: 1, 35, 60;  [M+H]+
Name: Ajmaline
Class: Benzylisoquinoline (subclass: Aporphine) alkaloid
Formula: C20H26N2O2
Exact mass: 326.1994
SMILES: CCC1C2CC3C4C5(CC(C2C5O)N3C1O)C6=CC=CC=C6N4C
InChI: InChI=1S/C20H26N2O2/c1-3-10-11-8-14-17-20(12-6-4-5-7-13(12)21(17)2)9-15(16(11)18(20)23)22(14)19(10)24/h4-7,10-11,14-19,23-24H,3,8-9H2,1-2H3
Instrument: AB Sciex TripleToF 5500
Instrument type: ESI-QTOF
Ms type: MS2
Ion mode: POSITIVE
Ionization: ESI
Collision energy: 1, 35, 60
Column name: Acquity CSHC18
Retention time: 5.133 min
Base peak: 327.2068
Precursor m/z: 327.2068
Precursor type: [M+H]+
Precursor intensity: 1715430
m/z	relative intensity
67.0448	7
81.0524	12
108.0631	15
132.0754	17
141.0617	19
158.08	19
166.0685	23
168.073	26
170.0896	28
173.0947	32
178.0707	44
183.0809	49
185.097	108
186.0991	119
195.0855	150
196.0895	157
197.0931	196
202.0963	203
205.0856	256
208.0959	290
210.1109	291
211.1148	343
235.1222	363
236.1278	508
239.1376	748
292.1668	999
