Mass spectrum: Myo-inositol; LC-ESI-QTOF; MS2; CE: 15;  [M+HCOOH-H]-
Name: Myo-inositol
Class: NA
Formula: C6H12O6
Exact mass: 180.0634
SMILES: C1(C(C(C(C(C1O)O)O)O)O)O
InChI: InChI=1S/C6H12O6/c7-1-2(8)4(10)6(12)5(11)3(1)9/h1-12H
Instrument: Bruker MicrOTOF-Q
Instrument type: LC-ESI-QTOF
Ms type: MS2
Ion mode: NEGATIVE
Ionization: ESI
Collision energy: 15
Column name: Acquity CSHC18
Retention time: NA
Base peak: 225.0616
Precursor m/z: 225.0616
Precursor type: [M+HCOOH-H]-
m/z	relative intensity
45.3407	169
51.5564	176
52.5227	261
53.1377	204
54.6615	289
71.3895	148
76.3646	197
84.2872	176
87.0038	282
98.2253	197
99.0107	494
103.1978	190
103.7304	215
105.7623	303
106.6465	212
107.3543	318
110.9768	169
112.7829	282
115.5672	226
116.9782	335
123.9979	318
125.0239	515
128.3134	212
129.0631	229
133.6667	339
135.2375	289
136.1077	204
138.7542	148
141.0255	219
143.0358	339
144.9298	148
146.7798	226
148.8209	212
154.6571	155
156.8502	155
159.0324	622
159.4926	303
160.8801	591
162.0525	204
170.0461	325
177.0432	169
178.3974	367
178.9552	999
180.0766	148
183.9217	169
199.2045	183
209.5875	141
219.8297	226
231.1899	204
254.8408	162
264.7155	282
269.8462	141
422.2513	169
424.4146	240
442.8692	162
481.8515	155
519.2595	148
527.7446	183
529.2453	148
579.2548	254
599.8218	169
603.9521	240
606.1779	247
642.9339	219
662.686	226
686.1997	183
691.2214	141
723.7647	155
726.876	204
735.7372	148
754.8004	233
851.4613	155
869.2405	155
869.8218	169
931.8025	169
933.5259	141
982.0978	169
993.5908	197
