Mass spectrum: (-)-Sparteine; LC-ESI-ITFT; MS2; CE: 40;  [M+H]+
Name: (-)-Sparteine
Class: NA
Formula: C15H26N2
Exact mass: 234.20960
SMILES: C1CCN2C[C@H]3C[C@@H]([C@H]2C1)CN4[C@H]3CCCC4
InChI: InChI=1S/C15H26N2/c1-3-7-16-11-13-9-12(14(16)5-1)10-17-8-4-2-6-15(13)17/h12-15H,1-11H2/t12-,13-,14-,15+/m1/s1
Instrument: Thermo Scientific Q-Exactive Focus
Instrument type: LC-ESI-ITFT
Ms type: MS2
Ion mode: POSITIVE
Ionization: ESI
Collision energy: 40
Column name: Acquity CSHC18
Retention time: 1.463 min
Base peak: 235.21687
Precursor m/z: 235.21687
Precursor type: [M+H]+
m/z	relative intensity
55.0548	4
70.0656	30
84.0812	14
96.0811	10
98.0968	999
134.0965	17
150.1276	11
152.1434	2
233.201	86
235.2166	114
