Mass spectrum: 18:0-18:2 DG; ESI-TOF; MS2; CE: 6.0000000;  [M+H]+
Name: 18:0-18:2 DG
Class: NA
Formula: C39H72O5
Exact mass: 620.53798
SMILES: [H]OC([H])([H])C([H])(OC(=O)C([H])([H])C([H])([H])C([H])([H])C([H])([H])C([H])([H])C([H])([H])C([H])([H])C([H])=C([H])C([H])([H])C([H])=C([H])C([H])([H])C([H])([H])C([H])([H])C([H])([H])C([H])([H])[H])C([H])([H])OC(=O)C([H])([H])C([H])([H])C([H])([H])C([H])([H])C([H])([H])C([H])([H])C([H])([H])C([H])([H])C([H])([H])C([H])([H])C([H])([H])C([H])([H])C([H])([H])C([H])([H])C([H])([H])C([H])([H])C([H])([H])[H]
InChI: InChI=1S/C39H72O5/c1-3-5-7-9-11-13-15-17-19-21-23-25-27-29-31-33-38(41)43-36-37(35-40)44-39(42)34-32-30-28-26-24-22-20-18-16-14-12-10-8-6-4-2/h12,14,18,20,37,40H,3-11,13,15-17,19,21-36H2,1-2H3
Instrument: waters xevo g2 TOF
Instrument type: ESI-TOF
Ms type: MS2
Ion mode: POSITIVE
Ionization: ESI
Collision energy: 6.0000000
Column name: Acquity CSHC18
Retention time: 12.322 min
Base peak: 621.54598
Precursor m/z: 621.54598
Precursor type: [M+H]+
m/z	relative intensity
81.0706	1
127.9793	13
129.9797	7
197.1205	10
245.227	16
263.2378	57
264.24	10
317.243	8
319.1954	3
330.2511	186
330.7526	58
331.2527	23
337.2747	330
338.2781	77
339.2836	15
341.3061	464
342.3096	108
343.313	15
359.3154	15
603.5367	999
604.5397	461
605.5423	103
606.5461	15
617.5118	32
618.5146	11
621.547	141
622.5483	62
