Mass spectrum: Propionylcarnitine; LC-ESI-ITFT; MS2; CE: 60;  [M+H]+
Name: Propionylcarnitine
Class: Lipids and lipid-like molecules; Fatty Acyls; Fatty acid esters
Formula: C10H19NO4
Exact mass: 217.13141
SMILES: CCC(=O)OC(CC([O-])=O)C[N+](C)(C)C
InChI: InChI=1S/C10H19NO4/c1-5-10(14)15-8(6-9(12)13)7-11(2,3)4/h8H,5-7H2,1-4H3
Instrument: Thermo Scientific Q-Exactive Focus
Instrument type: LC-ESI-ITFT
Ms type: MS2
Ion mode: POSITIVE
Ionization: ESI
Collision energy: 60
Column name: Acquity CSHC18
Retention time: 2.016 min
Base peak: 218.13869
Precursor m/z: 218.13869
Precursor type: [M+H]+
m/z	relative intensity
57.034	477
57.9908	20
58.0656	488
60.0813	155
84.0811	213
85.0287	999
139.6977	20
150.8092	20
197.778	20
231.5886	22
