Mass spectrum: Isopentyl cinnamate; LC-ESI-QTOF; MS2; CE: 15.00;  [M+H]+
Name: Isopentyl cinnamate
Class: NA
Formula: C14H18O2
Exact mass: 218.1307
SMILES: CC(C)CCOC(=O)C=CC1=CC=CC=C1
InChI: InChI=1S/C14H18O2/c1-12(2)10-11-16-14(15)9-8-13-6-4-3-5-7-13/h3-9,12H,10-11H2,1-2H3
Instrument: Bruker MicrOTOF-Q
Instrument type: LC-ESI-QTOF
Ms type: MS2
Ion mode: POSITIVE
Ionization: ESI
Collision energy: 15.00
Column name: Acquity CSHC18
Retention time: NA
Base peak: 219.1380
Precursor m/z: 219.1380
Precursor type: [M+H]+
m/z	relative intensity
103.0518	2
131.0478	999
131.3256	1
131.4391	1
131.4848	1
132.0511	89
133.0566	1
149.059	37
150.0625	3
