Mass spectrum: Gamma-Aminobutyric acid; ESI-TOF; MS2; CE: 6.0000000;  [M+H]+
Name: Gamma-Aminobutyric acid
Class: NA
Formula: C4H9NO2
Exact mass: 103.06333
SMILES: NCCCC(O)=O
InChI: InChI=1S/C4H9NO2/c5-3-1-2-4(6)7/h1-3,5H2,(H,6,7)
Instrument: waters xevo g2 TOF
Instrument type: ESI-TOF
Ms type: MS2
Ion mode: POSITIVE
Ionization: ESI
Collision energy: 6.0000000
Column name: Acquity CSHC18
Retention time: 0.493 min
Base peak: 104.07133
Precursor m/z: 104.07133
Precursor type: [M+H]+
m/z	relative intensity
78.9967	1
87.0449	315
91.9584	1
96.9619	999
97.9695	795
104.0713	792
104.9481	1
111.9691	96
128.8745	1
129.9809	86
130.9864	61
140.9631	208
142.9649	516
148.0361	1
149.9611	195
164.9547	32
170.0141	1
172.0963	38
180.9652	1
180.9963	12
191.9419	33
205.9898	68
209.0113	1
214.0414	5
235.8748	21
242.0366	13
243.8804	11
245.0808	35
248.8674	18
249.8848	28
258.0542	31
260.0453	482
261.0532	130
266.0425	24
282.0284	288
283.0341	63
304.011	1
318.791	1
363.11	94
385.0882	106
401.0521	14
408.7867	24
420.0317	13
510.1393	21
543.0785	1
