Mass spectrum: DL-O-Phosphoserine; LC-ESI-ITFT; MS2; CE: 60;  [M+H]+
Name: DL-O-Phosphoserine
Class: Organic acids and derivatives; Carboxylic acids and derivatives; Amino acids, peptides, and analogues
Formula: C3H8NO6P
Exact mass: 185.00892
SMILES: NC(COP(O)(O)=O)C(O)=O
InChI: InChI=1S/C3H8NO6P/c4-2(3(5)6)1-10-11(7,8)9/h2H,1,4H2,(H,5,6)(H2,7,8,9)
Instrument: Thermo Scientific Q-Exactive Focus
Instrument type: LC-ESI-ITFT
Ms type: MS2
Ion mode: POSITIVE
Ionization: ESI
Collision energy: 60
Column name: Acquity CSHC18
Retention time: 2.014 min
Base peak: 186.01620
Precursor m/z: 186.01620
Precursor type: [M+H]+
m/z	relative intensity
60.0448	23
76.4634	19
79.0605	18
79.2877	17
92.5243	35
98.9844	999
108.9823	17
114.6168	25
156.9746	22
200.9479	18
