Mass spectrum: L-Glutamine; LC-ESI-QTOF; MS2; CE: 15;  [2M-NH3+Na-2H]-
Name: L-Glutamine
Class: NA
Formula: C5H10N2O3
Exact mass: 146.0691
SMILES: C(CC(=O)N)C(C(=O)O)N
InChI: InChI=1S/C5H10N2O3/c6-3(5(9)10)1-2-4(7)8/h3H,1-2,6H2,(H2,7,8)(H,9,10)
Instrument: Bruker MicrOTOF-Q
Instrument type: LC-ESI-QTOF
Ms type: MS2
Ion mode: NEGATIVE
Ionization: ESI
Collision energy: 15
Column name: Acquity CSHC18
Retention time: NA
Base peak: 296.0864
Precursor m/z: 296.0864
Precursor type: [2M-NH3+Na-2H]-
m/z	relative intensity
53.242	43
55.0683	80
58.098	76
69.2087	52
72.2708	37
74.841	43
76.2236	61
79.5518	69
90.9147	48
90.9784	67
106.5438	54
112.9339	76
124.1125	44
126.8606	91
127.0669	54
128.0351	999
129.0445	59
145.063	615
161.8294	48
220.4215	39
255.9817	48
257.7635	48
276.2103	37
289.6805	41
323.4189	39
359.6442	43
426.9573	67
454.1577	54
463.4231	56
478.478	37
485.2438	50
511.3413	46
522.9552	52
635.0618	56
646.6139	37
647.2566	54
723.6714	41
734.9271	71
836.2844	39
843.1969	44
844.3006	39
914.0457	41
916.3921	39
932.0516	50
