Mass spectrum: Palmitic acid; LC-ESI-QTOF; MS2; CE: 15.00;  [M+H]+
Name: Palmitic acid
Class: NA
Formula: C16H32O2
Exact mass: 256.2402
SMILES: CCCCCCCCCCCCCCCC(=O)O
InChI: InChI=1S/C16H32O2/c1-2-3-4-5-6-7-8-9-10-11-12-13-14-15-16(17)18/h2-15H2,1H3,(H,17,18)
Instrument: Bruker MicrOTOF-Q
Instrument type: LC-ESI-QTOF
Ms type: MS2
Ion mode: POSITIVE
Ionization: ESI
Collision energy: 15.00
Column name: Acquity CSHC18
Retention time: NA
Base peak: 257.2475
Precursor m/z: 257.2475
Precursor type: [M+H]+
m/z	relative intensity
95.08	374
97.07	172
103.07	848
107.08	244
109.1	388
110.11	194
111.11	467
115.07	230
117.09	733
121.11	589
125.09	482
125.13	172
135.12	352
137.13	158
139.11	266
145.12	237
149.13	338
159.18	237
163.15	927
167.14	410
173.15	345
174.15	172
177.17	374
187.16	201
195.17	309
205.18	165
215.2	302
219.22	230
220.24	180
257.25	999
