Mass spectrum: Isobergapten; LC-ESI-ITFT; MS2; CE: 45eV;  [M+H]+
Name: Isobergapten
Class: coumarin
Formula: C12H8O4
Exact mass: 216.0423
SMILES: COC1=C2C=CC(=O)OC2=C3C=COC3=C1
InChI: InChI=1S/C12H8O4/c1-14-9-6-10-8(4-5-15-10)12-7(9)2-3-11(13)16-12/h2-6H,1H3
Instrument: LTQ Orbitrap XL, Thermo Scientfic; Dionex Ultimate 300
Instrument type: LC-ESI-ITFT
Ms type: MS2
Ion mode: POSITIVE
Ionization: ESI
Collision energy: 45eV
Column name: Alltima C18
Retention time: 24.09 min
Base peak: 217.0485
Precursor m/z: 217.0485
Precursor type: [M+H]+
m/z	relative intensity
104.9379	16
114.944	70
130.9051	9
132.9958	40
160.8803	999
170.9331	11
175.0761	3
188.926	572
