Mass spectrum: Isoeugenol; ESI-TOF; MS2; CE: 0.6458333;  [M+H]+
Name: Isoeugenol
Class: NA
Formula: C10H12O2
Exact mass: 164.08373
SMILES: COC1=CC(C=CC)=CC=C1O
InChI: InChI=1S/C10H12O2/c1-3-4-8-5-6-9(11)10(7-8)12-2/h3-7,11H,1-2H3
Instrument: waters xevo g2 TOF
Instrument type: ESI-TOF
Ms type: MS2
Ion mode: POSITIVE
Ionization: ESI
Collision energy: 0.6458333
Column name: Acquity CSHC18
Retention time: 3.158 min
Base peak: 165.09173
Precursor m/z: 165.09173
Precursor type: [M+H]+
m/z	relative intensity
65.0397	10
66.0475	4
77.0397	153
79.0554	174
81.0716	8
83.0676	3
89.0399	1
91.0552	253
92.0596	19
93.0527	16
94.042	89
95.0501	38
96.9619	9
103.0552	440
104.0614	113
105.0708	401
106.0742	36
107.05	528
108.0537	43
109.0656	35
110.0359	4
111.0336	14
112.0185	10
112.5226	14
115.0403	144
116.0612	25
117.0706	95
119.0501	104
120.0567	21
121.0655	112
121.5281	12
123.0619	12
124.0527	19
127.0552	32
128.0629	189
129.0154	21
131.0501	292
132.0559	74
133.0282	113
134.0199	11
135.081	94
136.0852	7
137.0606	999
138.0641	87
139.0257	3
141.0704	18
142.0777	11
143.0685	322
144.0567	21
145.0656	182
145.5168	3
146.0366	31
147.045	48
148.0188	41
150.0333	88
151.0762	630
152.0795	56
154.0374	1
154.5235	3
155.0895	139
156.0746	13
157.0655	15
158.0274	10
159.0357	19
160.0887	33
161.0445	45
162.068	38
163.0414	296
164.083	249
165.0914	142
166.095	12
167.0365	4
169.0426	15
170.0402	9
171.0813	450
172.0857	90
173.1131	42
174.0289	15
175.0658	57
175.5466	5
176.0323	8
176.5539	16
177.034	41
177.543	2
178.0476	9
179.0711	4
181.0772	2
183.5587	1
185.0803	2
185.5592	9
186.0346	314
187.0072	128
188.0497	586
189.0552	121
190.0953	15
191.0761	11
192.0549	6
193.0874	52
194.1025	3
195.072	14
196.1055	5
198.0722	1
201.0578	3
202.0628	9
203.0733	450
204.0494	150
205.0979	14
206.0763	15
207.0753	11
207.9841	6
209.0972	4
210.0221	1
211.0756	10
214.0566	3
215.1088	1
217.0857	23
219.0562	2
220.0555	9
221.0854	3
222.0659	13
223.0767	3
224.0538	10
225.1064	15
226.0708	3
227.033	1
229.0562	1
231.0398	2
233.1258	3
235.0611	29
236.0545	4
237.0766	82
238.0804	13
239.0894	10
240.114	2
241.1333	5
245.0143	24
246.0671	12
247.0507	3
248.0842	21
249.0164	5
250.0294	8
251.0297	2
252.1147	17
253.0854	16
254.0694	11
262.0993	10
263.1075	61
264.0595	7
265.095	29
266.0997	14
267.1387	43
268.1426	3
269.0813	28
270.0876	10
275.1173	1
277.1223	7
280.1083	31
281.104	61
282.105	8
283.1156	31
284.1048	36
285.1098	13
287.1109	1
289.0539	1
293.1185	16
294.1237	6
296.1374	17
297.0774	7
298.1209	93
299.1268	36
300.1319	4
309.1496	18
310.1526	2
311.1286	5
312.1341	19
313.1434	14
314.1454	2
318.0553	5
323.0868	38
324.0875	13
326.152	79
327.3755	101
328.1635	67
329.1669	5
332.0729	2
333.1641	8
334.1311	1
335.1136	1
336.0669	19
337.0698	3
338.1278	12
341.0659	17
346.1347	6
347.1272	3
348.0892	10
349.0986	173
350.114	60
351.1187	10
352.0968	22
353.0884	6
359.2093	5
361.0511	2
363.1098	3
365.1081	63
366.1203	22
367.1076	47
368.1119	13
370.0627	3
373.2477	20
378.1274	4
379.085	8
380.1238	1
381.124	419
382.1293	104
383.127	13
388.083	1
391.1427	3
397.1006	4
398.0826	18
409.1496	48
410.1528	10
411.1439	1
413.1059	19
414.1082	6
416.1059	2
417.1135	3
419.1255	1
425.1785	11
426.1816	2
427.0859	3
429.1161	32
431.1327	13
432.1377	2
443.1389	8
453.177	119
454.1796	28
459.1859	1
473.1453	39
474.1496	9
475.1585	626
476.1619	153
477.1632	32
489.2285	60
490.2315	20
491.1828	5
495.1264	91
496.13	23
510.0103	1
511.2096	8
512.2156	3
513.2195	3
515.2028	8
529.1944	4
530.104	3
531.1292	1
540.1619	1
543.1958	2
544.1988	3
545.204	8
561.1623	1
576.2275	1
580.1039	1
653.3109	4
671.1809	4
675.2891	1
677.2822	1
691.202	1
707.2739	10
708.2776	4
709.2416	3
724.2505	1
739.3014	1
