Mass spectrum: L-Cystine; LC-ESI-ITFT; MS2; CE: 20;  [M+H]+
Name: L-Cystine
Class: Organic acids and derivatives; Carboxylic acids and derivatives; Amino acids, peptides, and analogues
Formula: C6H12N2O4S2
Exact mass: 240.02385
SMILES: N[C@@H](CSSC[C@H](N)C(O)=O)C(O)=O
InChI: InChI=1S/C6H12N2O4S2/c7-3(5(9)10)1-13-14-2-4(8)6(11)12/h3-4H,1-2,7-8H2,(H,9,10)(H,11,12)/t3-,4-/m0/s1
Instrument: Thermo Scientific Q-Exactive Focus
Instrument type: LC-ESI-ITFT
Ms type: MS2
Ion mode: POSITIVE
Ionization: ESI
Collision energy: 20
Column name: Acquity CSHC18
Retention time: 0.631 min
Base peak: 241.03111
Precursor m/z: 241.03111
Precursor type: [M+H]+
m/z	relative intensity
73.0289	16
74.0064	245
74.0242	661
76.022	22
92.0168	33
105.0008	16
120.0116	999
122.0272	386
136.9725	22
151.9835	413
