Mass spectrum: Quercetagetin 3,3',6-trimethyl ether; LC-ESI-QTOF; MS2; CE: 50eV;  [M+H]+
Name: Quercetagetin 3,3',6-trimethyl ether
Class: Flavonol
Formula: C18H16O8
Exact mass: 360.0845
SMILES: COC1=C(C=CC(=C1)C2=C(C(=O)C3=C(O2)C=C(C(=C3O)OC)O)OC)O
InChI: InChI=1S/C18H16O8/c1-23-11-6-8(4-5-9(11)19)16-18(25-3)15(22)13-12(26-16)7-10(20)17(24-2)14(13)21/h4-7,19-21H,1-3H3
Instrument: TIMS-TOF Pro, Bruker Daltonik; Elute UHPLC System, Bruker Daltonik
Instrument type: LC-ESI-QTOF
Ms type: MS2
Ion mode: POSITIVE
Ionization: ESI
Collision energy: 50eV
Column name: Acquity CSHC18
Retention time: 7.962 min
Base peak: 361.0874
Precursor m/z: 361.0874
Precursor type: [M+H]+
Precursor intensity: 478094.8
m/z	relative intensity
73.9955	2
84.0174	1
95.5422	1
109.0282	1
119.0113	1
122.028	3
125.0541	2
137.0607	5
143.0445	2
149.0592	3
151.0376	6
158.033	2
161.0209	1
162.0473	1
170.0386	2
173.0601	3
177.0528	3
185.0431	3
187.0406	3
191.0677	4
199.0288	1
201.053	3
204.0063	2
213.0513	3
217.0485	5
229.0469	6
230.0589	2
232.0365	4
239.032	1
241.0379	1
243.0299	6
247.0334	6
257.0454	6
258.046	2
260.0302	8
269.0437	8
272.0632	5
282.0534	1
283.0589	11
284.0287	2
285.0377	3
288.0053	2
296.0305	1
297.036	10
299.0519	3
300.0625	6
303.0326	36
304.0526	8
307.5429	1
311.0532	4
313.0319	5
315.0507	4
316.0145	3
327.0471	3
328.0348	23
329.0616	9
330.0322	3
331.0216	26
332.0472	6
333.0454	1
345.0433	4
346.0667	144
347.071	13
348.053	1
361.0271	13
361.0874	999
361.401	1
