Mass spectrum: Benzoic acid; LC-ESI-ITFT; MS2; CE: 60;  [M-H]-
Name: Benzoic acid
Class: Benzenoids; Benzene and substituted derivatives; Benzoic acids and derivatives
Formula: C7H6O2
Exact mass: 122.03678
SMILES: OC(=O)C1=CC=CC=C1
InChI: InChI=1S/C7H6O2/c8-7(9)6-4-2-1-3-5-6/h1-5H,(H,8,9)
Instrument: Thermo Scientific Q-Exactive Focus
Instrument type: LC-ESI-ITFT
Ms type: MS2
Ion mode: NEGATIVE
Ionization: ESI
Collision energy: 60
Column name: Acquity CSHC18
Retention time: 2.026 min
Base peak: 121.02950
Precursor m/z: 121.02950
Precursor type: [M-H]-
m/z	relative intensity
51.2025	380
69.5239	395
74.1784	396
92.5138	999
93.763	404
108.2046	378
121.6841	414
129.561	400
134.7249	392
135.8278	377
