Mass spectrum: D-(-)-Ribose; LC-ESI-QTOF; MS2; CE: 0.00;  [2M-2H2O+H]+
Name: D-(-)-Ribose
Class: NA
Formula: C5H10O5
Exact mass: 150.0528
SMILES: C1C(C(C(C(O1)O)O)O)O
InChI: InChI=1S/C5H10O5/c6-2-1-10-5(9)4(8)3(2)7/h2-9H,1H2
Instrument: Bruker MicrOTOF-Q
Instrument type: LC-ESI-QTOF
Ms type: MS2
Ion mode: POSITIVE
Ionization: ESI
Collision energy: 0.00
Column name: Acquity CSHC18
Retention time: NA
Base peak: 265.0918
Precursor m/z: 265.0918
Precursor type: [2M-2H2O+H]+
m/z	relative intensity
133.0463	909
134.0545	196
157.0477	999
169.047	378
187.0587	744
199.0579	352
212.0568	126
247.0829	435
