Mass spectrum: 15(R)-Prostaglandin F2-alpha; ESI-TOF; MS2; CE: 0.6458333;  [M+H]+
Name: 15(R)-Prostaglandin F2-alpha
Class: NA
Formula: C20H34O5
Exact mass: 354.24062
SMILES: CCCCC[C@@H](/C=C/[C@H]1[C@@H](C[C@@H]([C@@H]1C/C=C\CCCC(=O)O)O)O)O
InChI: InChI=1S/C20H34O5/c1-2-3-6-9-15(21)12-13-17-16(18(22)14-19(17)23)10-7-4-5-8-11-20(24)25/h4,7,12-13,15-19,21-23H,2-3,5-6,8-11,14H2,1H3,(H,24,25)/b7-4-,13-12+/t15-,16+,17+,18-,19+/m0/s1
Instrument: waters xevo g2 TOF
Instrument type: ESI-TOF
Ms type: MS2
Ion mode: POSITIVE
Ionization: ESI
Collision energy: 0.6458333
Column name: Acquity CSHC18
Retention time: 3.570 min
Base peak: 355.24862
Precursor m/z: 355.24862
Precursor type: [M+H]+
m/z	relative intensity
79.0539	168
81.0698	208
87.0436	72
91.0547	305
93.0703	247
95.0863	145
105.0712	47
107.0864	233
109.1026	85
117.0703	235
119.0864	294
121.1019	238
123.1171	33
129.0706	499
131.086	649
133.1025	198
135.0982	29
141.0701	84
143.0856	354
145.1021	344
147.0811	87
155.0863	132
156.0946	27
157.1021	370
159.117	144
161.0965	90
163.1125	27
167.0722	58
169.1025	176
171.1172	350
172.1211	57
173.1296	70
175.1123	84
181.1264	8
183.1183	145
185.0958	216
187.1105	135
189.1651	43
199.1117	216
201.126	44
203.1793	5
205.159	5
209.1345	52
217.1583	28
229.1964	5
231.1339	5
239.1804	114
241.1948	148
247.2042	5
255.2098	5
257.191	74
258.1944	5
263.2001	5
264.2071	5
265.2048	108
266.2188	5
273.2234	30
275.2	115
276.2005	5
277.214	5
283.2053	260
284.2085	5
285.2146	5
293.2109	5
301.2162	497
302.2213	95
303.2296	5
304.2326	5
305.2101	32
315.1884	53
317.2096	5
318.1262	264
319.2269	5
320.2303	5
321.2367	5
331.1584	999
335.2227	5
337.2362	18
338.239	5
346.132	312
347.1775	347
348.1357	133
349.1278	155
355.1371	30
356.2058	5
356.7113	5
357.1721	117
