Mass spectrum: N-METHYLTRYPTAMINE; LC-ESI-QFT; MS2; CE: 30eV;  [M+H]+
Name: N-METHYLTRYPTAMINE
Class: NA
Formula: C11H14N2
Exact mass: 174.11570
SMILES: CNCCC1=CNC2=CC=CC=C12
InChI: InChI=1S/C11H14N2/c1-12-7-6-9-8-13-11-5-3-2-4-10(9)11/h2-5,8,12-13H,6-7H2,1H3
Instrument: Q-Exactive Orbitrap, Thermo Scientfic; Ultimate 3000 HPLC, Thermo Scientfic
Instrument type: LC-ESI-QFT
Ms type: MS2
Ion mode: POSITIVE
Ionization: ESI
Collision energy: 30eV
Column name: Acquity CSHC18
Retention time: 4.603 min
Base peak: 175.1230
Precursor m/z: 175.1230
Precursor type: [M+H]+
Precursor intensity: 139
m/z	relative intensity
55.9351	2
59.8536	2
66.9335	1
79.261	2
112.9765	16
115.0546	9
116.5192	2
117.0575	12
117.0703	11
118.0654	28
124.55	2
126.9557	2
131.9872	5
132.081	999
133.0844	51
140.9054	2
143.0734	9
145.0781	8
145.0842	267
175.1232	147
175.9775	4
176.1267	12
177.2789	2
193.9877	2
