Mass spectrum: Tuberonic acid glucoside (jasmonic acid derivative); LC-ESI-QTOF; MS2; CE: 20-40eV;  [M+NH4]+
Name: Tuberonic acid glucoside (jasmonic acid derivative)
Class: O-glycoside coumpond
Formula: C18H28O9
Exact mass: 388.1733
SMILES: C(=C(CC1(C(CCC1=O)(CC(=O)O)[H])[H])[H])(CCOC2(C(C(C(C(CO)(O2)[H])(O)[H])(O)[H])(O)[H])[H])[H]
InChI: InChI=1S/C18H28O9/c19-9-13-15(23)16(24)17(25)18(27-13)26-7-3-1-2-4-11-10(8-14(21)22)5-6-12(11)20/h1-2,10-11,13,15-19,23-25H,3-9H2,(H,21,22)
Instrument: Impact II, Bruker; Dionex 3000, Thermo Scientific
Instrument type: LC-ESI-QTOF
Ms type: MS2
Ion mode: POSITIVE
Ionization: ESI
Collision energy: 20-40eV
Column name: Acquity CSHC18
Retention time: 3.849 min
Base peak: 406.2076
Precursor m/z: 406.2076
Precursor type: [M+NH4]+
Precursor intensity: 206214.3
m/z	relative intensity
95.0661	8
97.0462	10
99.0619	10
105.0518	11
107.0664	17
109.0637	20
116.0393	20
117.0514	22
119.0668	23
120.0707	26
121.0647	29
122.0867	33
123.0798	35
129.0513	36
131.0673	43
133.0638	44
135.0975	45
136.0693	50
137.0782	62
145.0592	63
147.0797	85
148.0835	91
149.059	102
151.0933	122
165.0701	126
167.0881	137
173.1149	141
177.0363	188
179.0889	206
191.1263	232
209.0944	627
227.1045	999
