Mass spectrum: Miltirone; LC-ESI-QFT; MS2; CE: 15,30,45 (NCE);  [2M+K]+
Name: Miltirone
Class: NA
Formula: C19H22O2
Exact mass: 282.1620
SMILES: CC(C)C1=CC2=C(C(=O)C1=O)C1=C(C=C2)C(C)(C)CCC1
InChI: InChI=1S/C19H22O2/c1-11(2)14-10-12-7-8-15-13(6-5-9-19(15,3)4)16(12)18(21)17(14)20/h7-8,10-11H,5-6,9H2,1-4H3
Instrument: QE Focus, Thermo Scientfic; UPLC I-Class, Waters
Instrument type: LC-ESI-QFT
Ms type: MS2
Ion mode: POSITIVE
Ionization: ESI
Collision energy: 15,30,45 (NCE)
Column name: Acquity CSHC18
Retention time: 5.079 min
Base peak: 603.2866
Precursor m/z: 603.2866
Precursor type: [2M+K]+
Precursor intensity: 3359166
m/z	relative intensity
59.4954	5
79.037	7
156.7596	7
170.9106	7
234.1508	7
305.1509	79
316.5759	9
321.1248	999
325.7851	7
382.2878	11
413.4892	7
450.5813	7
458.2239	7
