Mass spectrum: Daidzein; LC-ESI-ITFT; MS2; CE: 30;  [M+H]+
Name: Daidzein
Class: Phenylpropanoids and polyketides; Isoflavonoids; Isoflav-2-enes
Formula: C15H10O4
Exact mass: 254.05791
SMILES: OC1=CC=C(C=C1)C1=COC2=C(C=CC(O)=C2)C1=O
InChI: InChI=1S/C15H10O4/c16-10-3-1-9(2-4-10)13-8-19-14-7-11(17)5-6-12(14)15(13)18/h1-8,16-17H
Instrument: Thermo Scientific Q-Exactive Focus
Instrument type: LC-ESI-ITFT
Ms type: MS2
Ion mode: POSITIVE
Ionization: ESI
Collision energy: 30
Column name: Acquity CSHC18
Retention time: 0.919 min
Base peak: 255.06519
Precursor m/z: 255.06519
Precursor type: [M+H]+
m/z	relative intensity
91.0545	277
137.0232	700
153.0697	243
157.0646	135
171.0802	139
181.0646	453
199.0752	999
227.0699	390
237.0543	190
255.0648	789
