Mass spectrum: 2-Phenylglycine; ESI-TOF; MS2; CE: 6.0000000;  [M+H]+
Name: 2-Phenylglycine
Class: NA
Formula: C8H9NO2
Exact mass: 151.06333
SMILES: NC(C(O)=O)C1=CC=CC=C1
InChI: InChI=1S/C8H9NO2/c9-7(8(10)11)6-4-2-1-3-5-6/h1-5,7H,9H2,(H,10,11)
Instrument: waters xevo g2 TOF
Instrument type: ESI-TOF
Ms type: MS2
Ion mode: POSITIVE
Ionization: ESI
Collision energy: 6.0000000
Column name: Acquity CSHC18
Retention time: 0.626 min
Base peak: 152.07133
Precursor m/z: 152.07133
Precursor type: [M+H]+
m/z	relative intensity
79.0554	13
79.0555	18
102.1285	5
106.0657	10
106.0659	20
107.05	78
107.0502	121
108.053	3
108.0535	8
114.9712	4
114.9717	3
114.9719	6
121.0657	1
129.0527	2
135.045	611
135.0451	999
135.9927	1
136.0483	147
137.0501	5
137.0505	3
152.0712	43
152.0715	64
163.9776	2
201.0087	1
