Mass spectrum: 6',7'-dihydroxy Bergamottin; LC-ESI-ITFT; MS2; CE: 45eV;  [M+H]+
Name: 6',7'-dihydroxy Bergamottin
Class: coumarin
Formula: C21H24O6
Exact mass: 372.1573
SMILES: CC(=CCOC1=C2C=CC(=O)OC2=CC3=C1C=CO3)CCC(C(C)(C)O)O
InChI: InChI=1S/C21H24O6/c1-13(4-6-18(22)21(2,3)24)8-10-26-20-14-5-7-19(23)27-17(14)12-16-15(20)9-11-25-16/h5,7-9,11-12,18,22,24H,4,6,10H2,1-3H3
Instrument: LTQ Orbitrap XL, Thermo Scientfic; Dionex Ultimate 300
Instrument type: LC-ESI-ITFT
Ms type: MS2
Ion mode: POSITIVE
Ionization: ESI
Collision energy: 45eV
Column name: Alltima C18
Retention time: 18.89 min
Base peak: 373.1648
Precursor m/z: 373.1648
Precursor type: [M+H]+
m/z	relative intensity
134.9634	999
143.1299	105
182.2349	47
199.3361	141
213.1695	129
266.0329	47
272.2614	188
297.129	223
311.0463	58
326.8539	129
334.3947	35
341.0936	317
349.2178	35
