Mass spectrum: ferulic acid; LC-ESI-QFT; MS2; CE: NCE_15_30_47;  [M-H]-
Name: ferulic acid
Class: NA
Formula: C10H10O4
Exact mass: 194.0579
SMILES: COC1=C(C=CC(=C1)C=CC(=O)O)O
InChI: InChI=1S/C10H10O4/c1-14-9-6-7(2-4-8(9)11)3-5-10(12)13/h2-6,11H,1H3,(H,12,13)
Instrument: Thermo_Qexactive_Plus
Instrument type: LC-ESI-QFT
Ms type: MS2
Ion mode: NEGATIVE
Ionization: ESI
Collision energy: NCE_15_30_47
Column name: Acquity CSHC18
Retention time: 4.289 min
Base peak: 193.0499
Precursor m/z: 193.0499
Precursor type: [M-H]-
Precursor intensity: 38904700
m/z	relative intensity
50.889	29
58.9415	30
63.9775	32
70.8406	34
79.6899	34
80.0793	35
95.9754	37
121.0293	38
129.3715	39
134.0386	46
135.0396	60
137.0234	63
139.039	73
149.0593	97
150.0629	114
152.0092	204
178.026	398
179.0295	598
192.9282	933
193.0478	999
