Mass spectrum: N-Acetyl-glucosamine 1-phosphate; LC-ESI-QTOF; MS2; CE: 30;  [M-H]-
Name: N-Acetyl-glucosamine 1-phosphate
Class: N-acyl-alpha-hexosamines
Formula: C8H16NO9P
Exact mass: 301.05627
SMILES: CC(=O)N[C@@H]1[C@@H](O)[C@H](O)[C@@H](CO)OC1OP(O)(O)=O
InChI: InChI=1S/C8H16NO9P/c1-3(11)9-5-7(13)6(12)4(2-10)17-8(5)18-19(14,15)16/h4-8,10,12-13H,2H2,1H3,(H,9,11)(H2,14,15,16)/t4-,5-,6-,7-,8?/m1/s1
Instrument: impact II
Instrument type: LC-ESI-QTOF
Ms type: MS2
Ion mode: NEGATIVE
Ionization: ESI
Collision energy: 30
Column name: Acquity CSHC18
Retention time: 1.730 min
Base peak: 300.04950
Precursor m/z: 300.04950
Precursor type: [M-H]-
m/z	relative intensity
59.014	2
73.0297	1
78.9589	999
78.9699	82
78.999	11
79.0219	14
79.0302	21
79.0432	11
79.0729	4
79.0798	7
79.0923	1
79.1036	1
79.1143	2
79.1382	1
79.1492	1
79.1712	1
79.1811	1
79.2003	1
79.2173	2
79.2286	1
79.2453	2
79.2605	1
79.3207	1
80.9631	2
96.9695	24
100.0402	2
300.0482	7
