Mass spectrum: (22S,25S)-22,26-Acetimino-5alpha-cholestan-3beta, 16alpha-diol; APCI-ITFT; MS2; CE: 35 CID;  [M+H]+
Name: (22S,25S)-22,26-Acetimino-5alpha-cholestan-3beta, 16alpha-diol
Class: NA
Formula: C29H49NO3
Exact mass: 459.37124
SMILES: C[C@@]12[C@](CC[C@]3([H])[C@@]([H])2CC[C@@]4(C)[C@@]3([H])C[C@@H](O)[C@]4([H])[C@H](C)[C@@H]5CC[C@H](C)CN5C(C)=O)([H])C[C@@H](O)CC1
InChI: InChI=1S/C29H49NO3/c1-17-6-9-25(30(16-17)19(3)31)18(2)27-26(33)15-24-22-8-7-20-14-21(32)10-12-28(20,4)23(22)11-13-29(24,27)5/h17-18,20-27,32-33H,6-16H2,1-5H3/t17-,18+,20-,21-,22+,23-,24-,25-,26+,27-,28-,29-/m0/s1
Instrument: Orbitrap Elite
Instrument type: APCI-ITFT
Ms type: MS2
Ion mode: POSITIVE
Ionization: APCI
Collision energy: 35 CID
Column name: Acquity CSHC18
Retention time: 0.222 min
Base peak: 460.37750
Precursor m/z: 460.37750
Precursor type: [M+H]+
Precursor intensity: 25183.61
m/z	relative intensity
130.7629	23
171.1914	23
188.6258	24
191.3449	25
195.5586	22
206.3708	27
228.3961	23
246.0443	26
251.3647	23
349.4974	26
363.1171	28
442.368	999
458.4693	25
