Mass spectrum: L-Dopa; LC-ESI-ITFT; MS2; CE: 10;  [M+H]+
Name: L-Dopa
Class: Organic acids and derivatives; Carboxylic acids and derivatives; Amino acids, peptides, and analogues
Formula: C9H11NO4
Exact mass: 197.06881
SMILES: N[C@@H](CC1=CC(O)=C(O)C=C1)C(O)=O
InChI: InChI=1S/C9H11NO4/c10-6(9(13)14)3-5-1-2-7(11)8(12)4-5/h1-2,4,6,11-12H,3,10H2,(H,13,14)/t6-/m0/s1
Instrument: Thermo Scientific Q-Exactive Focus
Instrument type: LC-ESI-ITFT
Ms type: MS2
Ion mode: POSITIVE
Ionization: ESI
Collision energy: 10
Column name: Acquity CSHC18
Retention time: 0.351 min
Base peak: 198.07608
Precursor m/z: 198.07608
Precursor type: [M+H]+
m/z	relative intensity
107.0492	14
111.0443	10
115.9641	4
135.044	146
137.0596	4
139.0389	270
152.0705	999
163.0388	66
181.0493	518
198.0759	153
