Mass spectrum: Allantoin; LC-ESI-ITFT; MS2; CE: 100;  [M-H]-
Name: Allantoin
Class: Organoheterocyclic compounds; Azoles; Imidazoles
Formula: C4H6N4O3
Exact mass: 158.04399
SMILES: NC(=O)NC1NC(=O)NC1=O
InChI: InChI=1S/C4H6N4O3/c5-3(10)6-1-2(9)8-4(11)7-1/h1H,(H3,5,6,10)(H2,7,8,9,11)
Instrument: Thermo Scientific Q-Exactive Focus
Instrument type: LC-ESI-ITFT
Ms type: MS2
Ion mode: NEGATIVE
Ionization: ESI
Collision energy: 100
Column name: Acquity CSHC18
Retention time: 2.317 min
Base peak: 157.03671
Precursor m/z: 157.03671
Precursor type: [M-H]-
m/z	relative intensity
53.1453	831
71.8454	838
89.3387	831
100.2591	829
101.6515	926
115.7759	923
117.6052	949
119.249	999
134.0728	857
139.2708	885
