Mass spectrum: Prostaglandin F2-alpha dimethyl amide; ESI-TOF; MS2; CE: 0.6458333;  [M+H]+
Name: Prostaglandin F2-alpha dimethyl amide
Class: NA
Formula: C22H39NO4
Exact mass: 381.28791
SMILES: O[C@@H]1[C@H](C/C=C\CCCC(N(C)C)=O)[C@@H](/C=C/[C@@H](O)CCCCC)[C@H](O)C1
InChI: InChI=1S/C22H39NO4/c1-4-5-8-11-17(24)14-15-19-18(20(25)16-21(19)26)12-9-6-7-10-13-22(27)23(2)3/h6,9,14-15,17-21,24-26H,4-5,7-8,10-13,16H2,1-3H3/b9-6-,15-14+/t17-,18+,19+,20-,21+/m0/s1
Instrument: waters xevo g2 TOF
Instrument type: ESI-TOF
Ms type: MS2
Ion mode: POSITIVE
Ionization: ESI
Collision energy: 0.6458333
Column name: Acquity CSHC18
Retention time: 3.642 min
Base peak: 382.29591
Precursor m/z: 382.29591
Precursor type: [M+H]+
m/z	relative intensity
67.0545	57
69.069	23
72.0445	378
79.0541	67
81.0702	117
82.0743	5
85.0649	10
88.0751	11
91.0546	116
93.0702	79
95.0683	84
100.0765	46
106.0739	8
107.0866	121
109.1016	57
114.0924	478
117.0708	225
118.0738	18
119.087	154
121.1025	83
123.1164	16
128.1074	354
129.0707	188
131.0866	379
132.0894	48
133.1016	122
135.1182	44
140.1066	43
141.0719	30
142.1236	42
143.0865	206
145.1023	301
146.1068	25
147.1176	86
149.0961	42
154.1239	75
155.0861	74
156.1012	82
157.1031	320
158.1176	238
159.1176	150
160.12	13
161.1324	66
163.1464	51
167.0723	43
169.0606	67
170.1113	21
171.1176	277
172.1221	32
173.1338	115
174.1379	14
175.1491	82
180.1237	17
181.1024	85
183.0754	35
184.0276	10
185.1328	185
186.0998	13
187.1478	117
188.1509	12
189.1625	20
194.1544	19
195.0772	26
199.1474	169
200.1521	25
201.1656	55
201.618	2
203.1416	27
205.1966	37
206.1551	23
209.1335	65
210.1206	9
212.0586	12
213.1276	47
215.1802	246
216.182	26
217.1597	32
219.2112	5
223.1389	23
229.1953	64
231.2101	12
232.1687	26
234.1859	20
239.1797	96
240.182	13
241.1953	999
242.1994	181
243.2057	15
244.1709	13
246.1851	19
248.2018	56
252.0676	24
255.2111	133
257.1903	116
262.2241	8
265.1949	82
283.2059	573
284.2087	90
285.2164	12
290.2474	22
292.264	171
294.2663	3
301.2149	47
302.248	99
304.2571	3
318.2781	7
320.2592	81
321.26	11
328.2636	547
329.2665	112
330.2714	10
343.1584	6
345.1752	92
346.2252	89
347.2783	44
352.2416	29
356.1911	300
357.1932	32
358.2052	243
359.2055	23
361.2414	46
361.7466	24
363.1958	8
364.2846	132
365.2896	25
372.1648	71
373.1706	25
374.2122	70
375.182	32
383.2539	50
383.761	27
384.2156	13
