Mass spectrum: Pipecolic acid; LC-ESI-ITFT; MS2; CE: 20;  [M+H]+
Name: Pipecolic acid
Class: Organic acids and derivatives; Carboxylic acids and derivatives; Amino acids, peptides, and analogues
Formula: C6H11NO2
Exact mass: 129.07898
SMILES: OC(=O)C1CCCCN1
InChI: InChI=1S/C6H11NO2/c8-6(9)5-3-1-2-4-7-5/h5,7H,1-4H2,(H,8,9)
Instrument: Thermo Scientific Q-Exactive Focus
Instrument type: LC-ESI-ITFT
Ms type: MS2
Ion mode: POSITIVE
Ionization: ESI
Collision energy: 20
Column name: Acquity CSHC18
Retention time: NA
Base peak: 130.08626
Precursor m/z: 130.08626
Precursor type: [M+H]+
m/z	relative intensity
55.0547	9
56.05	88
67.0547	8
68.4473	1
82.0655	1
84.0812	999
87.0044	1
92.5226	2
130.0862	11
140.8417	1
