Mass spectrum: L-Tryptophan; LC-ESI-ITFT; MS2; CE: 60;  [M+H]+
Name: L-Tryptophan
Class: Organoheterocyclic compounds; Indoles and derivatives; Indolyl carboxylic acids and derivatives
Formula: C11H12N2O2
Exact mass: 204.08988
SMILES: N[C@@H](CC1=CNC2=C1C=CC=C2)C(O)=O
InChI: InChI=1S/C11H12N2O2/c12-9(11(14)15)5-7-6-13-10-4-2-1-3-8(7)10/h1-4,6,9,13H,5,12H2,(H,14,15)/t9-/m0/s1
Instrument: Thermo Scientific Q-Exactive Focus
Instrument type: LC-ESI-ITFT
Ms type: MS2
Ion mode: POSITIVE
Ionization: ESI
Collision energy: 60
Column name: Acquity CSHC18
Retention time: NA
Base peak: 205.09715
Precursor m/z: 205.09715
Precursor type: [M+H]+
m/z	relative intensity
65.0391	260
89.0389	417
90.0468	206
91.0546	746
95.0494	109
103.0545	78
115.0544	999
117.0575	455
130.0652	140
142.0651	82
