Mass spectrum: Indole-3-propionic acid; LC-ESI-QTOF; MS2; CE: 50eV;  [M+H]+
Name: Indole-3-propionic acid
Class: indole
Formula: C11H11NO2
Exact mass: 189.0790
SMILES: C1=CC=C2C(=C1)C(=CN2)CCC(=O)O
InChI: InChI=1S/C11H11NO2/c13-11(14)6-5-8-7-12-10-4-2-1-3-9(8)10/h1-4,7,12H,5-6H2,(H,13,14)
Instrument: TIMS-TOF Pro, Bruker Daltonik; Elute UHPLC System, Bruker Daltonik
Instrument type: LC-ESI-QTOF
Ms type: MS2
Ion mode: POSITIVE
Ionization: ESI
Collision energy: 50eV
Column name: Acquity CSHC18
Retention time: 6.856 min
Base peak: 190.0850
Precursor m/z: 190.0850
Precursor type: [M+H]+
Precursor intensity: 111536.2
m/z	relative intensity
31.9663	4
55.0176	3
76.8344	2
77.039	107
80.0465	4
96.7579	3
103.045	5
104.0573	6
111.1916	4
118.0638	3
127.059	3
130.0524	21
130.065	999
130.7481	5
131.0676	69
142.0622	3
144.0719	5
144.0795	20
161.9735	2
172.0752	45
190.085	22
