Mass spectrum: PC(16:0/18:1); LC-ESI-QTOF; MS2; CE: 10;  [M+H]+
Name: PC(16:0/18:1)
Class: NA
Formula: C42H82NO8P
Exact mass: 759.57781
SMILES: C[N+](C)(C)CCOP([O-])(=O)OC[C@@H](COC(=O)CCCCCCCCCCCCCCC)OC(=O)CCCCCCCCC/C=C\CCCCCC
InChI: InChI=1S/C42H82NO8P/c1-6-8-10-12-14-16-18-20-21-23-25-27-29-31-33-35-42(45)51-40(39-50-52(46,47)49-37-36-43(3,4)5)38-48-41(44)34-32-30-28-26-24-22-19-17-15-13-11-9-7-2/h16,18,40H,6-15,17,19-39H2,1-5H3/b18-16-/t40-/m1/s1
Instrument: impact II
Instrument type: LC-ESI-QTOF
Ms type: MS2
Ion mode: POSITIVE
Ionization: ESI
Collision energy: 10
Column name: Acquity CSHC18
Retention time: 1.789 min
Base peak: 760.58560
Precursor m/z: 760.58560
Precursor type: [M+H]+
m/z	relative intensity
760.5874	999
761.5894	975
762.5918	218
