Mass spectrum: N-Acetylneuraminic acid; ESI-TOF; MS2; CE: 0.6458333;  [M+H]+
Name: N-Acetylneuraminic acid
Class: NA
Formula: C11H19NO9
Exact mass: 309.10598
SMILES: CC(=O)NC1C(O)CC(O)(OC1C(O)C(O)CO)C(O)=O
InChI: InChI=1S/C11H19NO9/c1-4(14)12-7-5(15)2-11(20,10(18)19)21-9(7)8(17)6(16)3-13/h5-9,13,15-17,20H,2-3H2,1H3,(H,12,14)(H,18,19)
Instrument: waters xevo g2 TOF
Instrument type: ESI-TOF
Ms type: MS2
Ion mode: POSITIVE
Ionization: ESI
Collision energy: 0.6458333
Column name: Acquity CSHC18
Retention time: 0.626 min
Base peak: 310.11398
Precursor m/z: 310.11398
Precursor type: [M+H]+
m/z	relative intensity
112.0389	142
121.0289	822
122.0612	166
123.0438	424
135.9921	11
135.9922	11
166.0505	154
167.0343	386
197.0451	756
214.073	11
250.9555	11
274.0925	498
275.0959	11
276.0977	11
288.109	11
288.1093	11
292.1042	107
293.1065	11
306.1202	11
310.1134	161
314.0858	186
319.0369	11
332.0958	999
346.1117	11
641.2024	11
672.1304	11
