Mass spectrum: Glucose 1-phosphate; LC-ESI-ITFT; MS2; CE: 30;  [M-H]-
Name: Glucose 1-phosphate
Class: Organic oxygen compounds; Organooxygen compounds; Carbohydrates and carbohydrate conjugates
Formula: C6H13O9P
Exact mass: 260.02972
SMILES: OC[C@H]1OC(OP(O)(O)=O)[C@H](O)[C@@H](O)[C@@H]1O
InChI: InChI=1S/C6H13O9P/c7-1-2-3(8)4(9)5(10)6(14-2)15-16(11,12)13/h2-10H,1H2,(H2,11,12,13)/t2-,3-,4+,5-,6?/m1/s1
Instrument: Thermo Scientific Q-Exactive Focus
Instrument type: LC-ESI-ITFT
Ms type: MS2
Ion mode: NEGATIVE
Ionization: ESI
Collision energy: 30
Column name: Acquity CSHC18
Retention time: 0.931 min
Base peak: 259.02243
Precursor m/z: 259.02243
Precursor type: [M-H]-
m/z	relative intensity
78.9579	999
96.9685	63
102.9477	1
138.9792	11
