Mass spectrum: N-ACETYLNEURAMINATE; LC-ESI-QFT; MS2; CE: 30eV;  [M-H]-
Name: N-ACETYLNEURAMINATE
Class: NA
Formula: C11H19NO9
Exact mass: 309.10598
SMILES: CC(=O)N[C@@H]1[C@@H](O)C[C@](O)(O[C@H]1[C@H](O)[C@H](O)CO)C(O)=O
InChI: InChI=1S/C11H19NO9/c1-4(14)12-7-5(15)2-11(20,10(18)19)21-9(7)8(17)6(16)3-13/h5-9,13,15-17,20H,2-3H2,1H3,(H,12,14)(H,18,19)/t5-,6+,7+,8+,9+,11-/m0/s1
Instrument: Q-Exactive Orbitrap, Thermo Scientfic; Ultimate 3000 HPLC, Thermo Scientfic
Instrument type: LC-ESI-QFT
Ms type: MS2
Ion mode: NEGATIVE
Ionization: ESI
Collision energy: 30eV
Column name: Acquity CSHC18
Retention time: 0.612 min
Base peak: 308.0987
Precursor m/z: 308.0987
Precursor type: [M-H]-
Precursor intensity: 195
m/z	relative intensity
51.8969	1
53.3916	1
55.0008	1
58.9572	2
59.0123	25
60.79	1
61.5082	1
61.5516	1
63.1131	1
71.0123	1
74.9522	9
81.717	1
87.0071	999
87.9238	3
88.0104	14
89.0227	8
98.0595	128
100.0387	15
101.0226	18
101.4728	1
101.9393	12
102.9471	89
103.9185	6
106.9421	3
113.6011	1
118.9421	32
119.0333	23
123.9448	2
126.0545	18
129.8795	3
130.8871	18
135.7398	2
136.5014	1
144.942	2
145.9294	32
145.9403	11
146.8821	2
146.9371	215
161.8691	14
162.838	6
162.9322	2
170.0446	162
171.0484	2
173.8434	1
173.8694	53
174.8774	221
175.2365	1
189.8646	26
189.9306	1
190.8649	1
190.8727	7
190.9274	22
191.8804	16
192.8881	30
195.8756	3
195.9211	1
207.8758	5
217.8597	65
217.8698	2
218.8676	139
234.8634	2
235.8706	28
235.8816	4
236.8785	83
249.2848	1
255.2897	1
259.461	1
259.5275	1
262.859	2
275.1109	1
280.8695	3
304.9863	1
