Mass spectrum: 4-Hydroxy-3-indolylmethylglucosinolate; LC-ESI-QTOF; MS2; CE: 50eV;  [M-H]-
Name: 4-Hydroxy-3-indolylmethylglucosinolate
Class: indolic glucosinolate
Formula: C16H20N2O10S2
Exact mass: 464.0559
SMILES: C1=CC2=C(C(=C1)O)C(=CN2)CC(=NOS(=O)(=O)O)SC3C(C(C(C(O3)CO)O)O)O
InChI: InChI=1S/C16H20N2O10S2/c19-6-10-13(21)14(22)15(23)16(27-10)29-11(18-28-30(24,25)26)4-7-5-17-8-2-1-3-9(20)12(7)8/h1-3,5,10,13-17,19-23H,4,6H2,(H,24,25,26)
Instrument: TIMS-TOF Pro, Bruker Daltonik; Elute UHPLC System, Bruker Daltonik
Instrument type: LC-ESI-QTOF
Ms type: MS2
Ion mode: NEGATIVE
Ionization: ESI
Collision energy: 50eV
Column name: Acquity CSHC18
Retention time: 6.477 min
Base peak: 463.0383
Precursor m/z: 463.0383
Precursor type: [M-H]-
Precursor intensity: 4364.44
m/z	relative intensity
79.9542	53
96.9572	999
97.958	33
138.9693	30
144.0427	95
259.0051	39
463.0383	694
