Mass spectrum: 5-Methoxyindoleacetate; LC-ESI-ITFT; MS2; CE: 10;  [M+H]+
Name: 5-Methoxyindoleacetate
Class: Organoheterocyclic compounds; Indoles and derivatives; Indolyl carboxylic acids and derivatives
Formula: C11H11NO3
Exact mass: 205.07389
SMILES: COC1=CC2=C(NC=C2CC(O)=O)C=C1
InChI: InChI=1S/C11H11NO3/c1-15-8-2-3-10-9(5-8)7(6-12-10)4-11(13)14/h2-3,5-6,12H,4H2,1H3,(H,13,14)
Instrument: Thermo Scientific Q-Exactive Focus
Instrument type: LC-ESI-ITFT
Ms type: MS2
Ion mode: POSITIVE
Ionization: ESI
Collision energy: 10
Column name: Acquity CSHC18
Retention time: 0.348 min
Base peak: 206.08118
Precursor m/z: 206.08118
Precursor type: [M+H]+
m/z	relative intensity
92.5223	1
117.0576	2
133.0648	1
145.0522	3
160.0758	999
206.0812	242
