Mass spectrum: LUMICHROME; LC-ESI-QTOF; MS2; CE: 10;  [M+H]+
Name: LUMICHROME
Class: NA
Formula: C12H10N4O2
Exact mass: 242.08038
SMILES: CC1=CC2=C(C=C1C)N=C3C(=N2)C(=O)NC(=O)N3
InChI: InChI=1S/C12H10N4O2/c1-5-3-7-8(4-6(5)2)14-10-9(13-7)11(17)16-12(18)15-10/h3-4H,1-2H3,(H2,14,15,16,17,18)
Instrument: Agilent 6530Â Q-TOF LC/MS
Instrument type: LC-ESI-QTOF
Ms type: MS2
Ion mode: POSITIVE
Ionization: ESI
Collision energy: 10
Column name: NA
Retention time: 0.200 min
Base peak: 243.08876
Precursor m/z: 243.08876
Precursor type: [M+H]+
Precursor intensity: 18.5
m/z	relative intensity
84.9446	355
84.9498	758
84.9551	812
84.9604	707
84.9657	565
84.971	463
84.9763	358
102.079	480
102.0848	555
102.0906	504
102.0964	382
113.8902	487
113.8964	548
113.9025	491
113.9086	389
123.103	596
123.1093	748
123.1157	673
123.122	531
123.1284	416
243.0596	362
243.0686	849
243.0775	999
243.0864	934
243.0954	792
243.1043	612
243.1132	494
243.1222	386
243.1669	402
243.1758	484
243.1847	450
243.1937	375
