Mass spectrum: Nicotianoside VII; LC-ESI-QTOF; MS2; CE: 22.5eV;  [M+NH4]+
Name: Nicotianoside VII
Class: Diterpene
Formula: C50H78O27
Exact mass: 1110.4730
SMILES: O=C(O)CC(=O)OC[C@H]1O[C@@H](OCC(/C)=C\CCC(\C)=C\CCC(\C)=C\CC[C@](C)(O[C@@H]2O[C@H](COC(=O)CC(=O)O)[C@@H](O[C@@H]3O[C@@H](C)[C@H](O)[C@@H](O)[C@H]3O)[C@H](O)[C@H]2O)C=C)[C@H](OC2O[C@H](CO)[C@@H](O)[C@H](O)[C@H]2O)[C@@H](O)[C@@H]1O
InChI: InChI=1S/C50H78O27/c1-7-50(6,77-48-43(67)40(64)44(29(74-48)22-69-33(57)18-31(54)55)75-46-41(65)37(61)34(58)26(5)71-46)16-10-15-24(3)12-8-11-23(2)13-9-14-25(4)20-70-49-45(76-47-42(66)38(62)35(59)27(19-51)72-47)39(63)36(60)28(73-49)21-68-32(56)17-30(52)53/h7,11,14-15,26-29,34-49,51,58-67H,1,8-10,12-13,16-22H2,2-6H3,(H,52,53)(H,54,55)/b23-11+,24-15+,25-14-/t26-,27+,28+,29+,34-,35+,36+,37+,38-,39-,40+,41+,42+,43+,44+,45+,46-,47?,48-,49+,50+/m0/s1
Instrument: Impact II qTOF
Instrument type: LC-ESI-QTOF
Ms type: MS2
Ion mode: POSITIVE
Ionization: ESI
Collision energy: 22.5eV
Column name: Acquity CSH C18 column (particle size 1.7 μm, column length 2.1 × 50 mm) (Waters)
Retention time: 19.9 min
Base peak: 1128.5066
Precursor m/z: 1128.5066
Precursor type: [M+NH4]+
m/z	relative intensity
177.1634	14
213.0401	12
215.1795	19
231.0494	29
249.061	62
271.2422	351
272.2457	69
289.2528	19
359.0973	39
377.1083	32
393.1013	19
395.1185	172
396.1231	29
399.2911	12
411.1139	125
412.1177	17
413.1281	30
417.3	66
418.3027	15
435.3121	12
479.102	24
497.1141	48
519.2963	15
521.1488	13
537.3071	24
557.1715	123
558.1756	23
575.1819	38
607.1508	11
625.1628	15
643.1733	37
659.1676	20
665.3521	17
683.3636	20
805.2238	14
845.4165	19
1128.5048	999
