Mass spectrum: Quercetagetin 3-methyl ether; LC-ESI-QTOF; MS2; CE: 50eV;  [M+H]+
Name: Quercetagetin 3-methyl ether
Class: Flavonol
Formula: C16H12O8
Exact mass: 332.0532
SMILES: COC1=C(OC2=C(C1=O)C(=C(C(=C2)O)O)O)C3=CC(=C(C=C3)O)O
InChI: InChI=1S/C16H12O8/c1-23-16-14(22)11-10(5-9(19)12(20)13(11)21)24-15(16)6-2-3-7(17)8(18)4-6/h2-5,17-21H,1H3
Instrument: TIMS-TOF Pro, Bruker Daltonik; Elute UHPLC System, Bruker Daltonik
Instrument type: LC-ESI-QTOF
Ms type: MS2
Ion mode: POSITIVE
Ionization: ESI
Collision energy: 50eV
Column name: Acquity CSHC18
Retention time: 5.853 min
Base peak: 333.0590
Precursor m/z: 333.0590
Precursor type: [M+H]+
Precursor intensity: 36582.38
m/z	relative intensity
96.0188	23
122.0735	18
134.0367	25
160.0496	16
215.0265	17
229.9528	21
273.0344	20
317.0327	28
319.0388	55
333.059	999
