Mass spectrum: SALSOLINOL; LC-ESI-QTOF; MS2; CE: 10;  [M+H]+
Name: SALSOLINOL
Class: NA
Formula: C10H13NO2
Exact mass: 179.09463
SMILES: [H][C@@]1(C)NCCC2=CC(O)=C(O)C=C12
InChI: InChI=1S/C10H13NO2/c1-6-8-5-10(13)9(12)4-7(8)2-3-11-6/h4-6,11-13H,2-3H2,1H3/t6-/m0/s1
Instrument: Agilent 6530Â Q-TOF LC/MS
Instrument type: LC-ESI-QTOF
Ms type: MS2
Ion mode: POSITIVE
Ionization: ESI
Collision energy: 10
Column name: NA
Retention time: 0.200 min
Base peak: 180.10418
Precursor m/z: 180.10418
Precursor type: [M+H]+
Precursor intensity: 38.5
m/z	relative intensity
91.0532	122
115.0578	125
117.0891	183
127.0473	211
137.0593	234
145.0943	657
151.0708	757
163.1074	809
180.1417	999
