Mass spectrum: L-Tryptophan; LC-ESI-ITFT; MS2; CE: 100;  [M-H]-
Name: L-Tryptophan
Class: Organoheterocyclic compounds; Indoles and derivatives; Indolyl carboxylic acids and derivatives
Formula: C11H12N2O2
Exact mass: 204.08988
SMILES: N[C@@H](CC1=CNC2=C1C=CC=C2)C(O)=O
InChI: InChI=1S/C11H12N2O2/c12-9(11(14)15)5-7-6-13-10-4-2-1-3-8(7)10/h1-4,6,9,13H,5,12H2,(H,14,15)/t9-/m0/s1
Instrument: Thermo Scientific Q-Exactive Focus
Instrument type: LC-ESI-ITFT
Ms type: MS2
Ion mode: NEGATIVE
Ionization: ESI
Collision energy: 100
Column name: Acquity CSHC18
Retention time: 2.323 min
Base peak: 203.08260
Precursor m/z: 203.08260
Precursor type: [M-H]-
m/z	relative intensity
68.6832	951
75.8992	862
83.7342	924
94.5896	902
96.4376	882
134.0281	955
175.1289	999
184.1374	864
187.9286	960
217.4444	990
