Mass spectrum: Salicylic acid; LC-ESI-QTOF; MS2; CE: 50eV;  [M-H]-
Name: Salicylic acid
Class: benzoic acid derivative
Formula: C7H6O3
Exact mass: 138.0317
SMILES: C1=CC=C(C(=C1)C(=O)O)O
InChI: InChI=1S/C7H6O3/c8-6-4-2-1-3-5(6)7(9)10/h1-4,8H,(H,9,10)
Instrument: TIMS-TOF Pro, Bruker Daltonik; Elute UHPLC System, Bruker Daltonik
Instrument type: LC-ESI-QTOF
Ms type: MS2
Ion mode: NEGATIVE
Ionization: ESI
Collision energy: 50eV
Column name: Acquity CSHC18
Retention time: 6.597 min
Base peak: 137.0212
Precursor m/z: 137.0212
Precursor type: [M-H]-
Precursor intensity: 7620
m/z	relative intensity
93.0312	224
93.0327	999
