Mass spectrum: N-ACETYLNEURAMINATE; LC-ESI-QFT; MS2; CE: 30eV;  [M+H]+
Name: N-ACETYLNEURAMINATE
Class: NA
Formula: C11H19NO9
Exact mass: 309.10598
SMILES: CC(=O)N[C@@H]1[C@@H](O)C[C@](O)(O[C@H]1[C@H](O)[C@H](O)CO)C(O)=O
InChI: InChI=1S/C11H19NO9/c1-4(14)12-7-5(15)2-11(20,10(18)19)21-9(7)8(17)6(16)3-13/h5-9,13,15-17,20H,2-3H2,1H3,(H,12,14)(H,18,19)/t5-,6+,7+,8+,9+,11-/m0/s1
Instrument: Q-Exactive Orbitrap, Thermo Scientfic; Ultimate 3000 HPLC, Thermo Scientfic
Instrument type: LC-ESI-QFT
Ms type: MS2
Ion mode: POSITIVE
Ionization: ESI
Collision energy: 30eV
Column name: Acquity CSHC18
Retention time: 0.582 min
Base peak: 310.1133
Precursor m/z: 310.1133
Precursor type: [M+H]+
Precursor intensity: 154
m/z	relative intensity
112.0379	96
122.0463	110
124.0579	129
168.0517	175
170.0634	788
197.0544	999
