Mass spectrum: Imipramine; ESI-TOF; MS2; CE: 0.6458333;  [M+H]+
Name: Imipramine
Class: NA
Formula: C19H24N2
Exact mass: 280.19395
SMILES: CN(C)CCCN1C2=CC=CC=C2CCC2=CC=CC=C12
InChI: InChI=1S/C19H24N2/c1-20(2)14-7-15-21-18-10-5-3-8-16(18)12-13-17-9-4-6-11-19(17)21/h3-6,8-11H,7,12-15H2,1-2H3
Instrument: waters xevo g2 TOF
Instrument type: ESI-TOF
Ms type: MS2
Ion mode: POSITIVE
Ionization: ESI
Collision energy: 0.6458333
Column name: Acquity CSHC18
Retention time: 2.620 min
Base peak: 281.20195
Precursor m/z: 281.20195
Precursor type: [M+H]+
m/z	relative intensity
58.0665	105
59.0697	4
71.0743	2
72.0816	1
84.0813	1
86.5279	791
87.9446	3
91.0553	9
97.9692	3
100.0413	4
105.0705	5
106.0674	1
118.0652	3
130.0659	7
132.0816	4
143.0739	2
144.081	4
158.097	15
159.1019	1
165.0699	1
167.105	2
180.0819	9
192.0814	12
193.0889	321
194.0968	77
195.1021	21
196.1108	3
204.0799	2
206.097	14
207.1041	12
208.1127	999
209.116	186
210.1214	16
218.1103	3
219.1039	2
220.1161	23
221.1186	11
232.1134	2
236.144	285
237.1471	53
238.1508	4
281.3056	339
282.2055	124
