Mass spectrum: N-ACETYLPROLINE; LC-ESI-QFT; MS2; CE: 30eV;  [M+H]+
Name: N-ACETYLPROLINE
Class: NA
Formula: C7H11NO3
Exact mass: 157.07389
SMILES: CC(=O)N1CCCC1C(=O)O
InChI: InChI=1S/C7H11NO3/c1-5(9)8-4-2-3-6(8)7(10)11/h6H,2-4H2,1H3,(H,10,11)
Instrument: Q-Exactive Orbitrap, Thermo Scientfic; Ultimate 3000 HPLC, Thermo Scientfic
Instrument type: LC-ESI-QFT
Ms type: MS2
Ion mode: POSITIVE
Ionization: ESI
Collision energy: 30eV
Column name: Acquity CSHC18
Retention time: 2.669 min
Base peak: 158.0812
Precursor m/z: 158.0812
Precursor type: [M+H]+
Precursor intensity: 144
m/z	relative intensity
51.4733	2
52.4132	2
52.4148	3
55.9351	120
55.9364	6
57.8143	2
59.4282	2
71.0691	43
72.9378	22
73.9456	17
77.8982	2
88.6888	3
89.9406	5
90.9482	39
91.9559	6
96.9614	20
96.9723	13
97.1909	3
100.1125	4
102.0918	7
102.1282	43
106.9923	3
107.9508	30
108.9593	4
111.9687	29
112.9671	4
113.0732	4
113.0793	108
113.0829	5
113.9641	6
114.9718	472
116.0709	999
116.1073	18
117.0743	30
117.9352	30
118.4956	3
125.9613	20
128.951	49
130.9791	5
135.9455	191
140.0707	210
140.9618	3
141.0741	5
146.9617	13
148.9897	5
153.956	94
158.0813	594
158.1541	276
158.9613	4
159.0847	32
173.0997	3
