Mass spectrum: 1,2-diarachidonoyl-sn-glycero-3-phosphoethanolamine; ESI-TOF; MS2; CE: 0.6458333;  [M+H]+
Name: 1,2-diarachidonoyl-sn-glycero-3-phosphoethanolamine
Class: NA
Formula: C45H74NO8P
Exact mass: 787.51520
SMILES: [H]C(=C([H])C([H])([H])C([H])=C([H])C([H])([H])C([H])([H])C([H])([H])C(=O)OC([H])([H])C([H])(OC(=O)C([H])([H])C([H])([H])C([H])([H])C([H])=C([H])C([H])([H])C([H])=C([H])C([H])([H])C([H])=C([H])C([H])([H])C([H])=C([H])C([H])([H])C([H])([H])C([H])([H])C([H])([H])C([H])([H])[H])C([H])([H])OP(=O)([O-])OC([H])([H])C([H])([H])[N+]([H])([H])[H])C([H])([H])C([H])=C([H])C([H])([H])C([H])=C([H])C([H])([H])C([H])([H])C([H])([H])C([H])([H])C([H])([H])[H]
InChI: InChI=1S/C45H74NO8P/c1-3-5-7-9-11-13-15-17-19-21-23-25-27-29-31-33-35-37-44(47)51-41-43(42-53-55(49,50)52-40-39-46)54-45(48)38-36-34-32-30-28-26-24-22-20-18-16-14-12-10-8-6-4-2/h11-14,17-20,23-26,29-32,43H,3-10,15-16,21-22,27-28,33-42,46H2,1-2H3,(H,49,50)
Instrument: waters xevo g2 TOF
Instrument type: ESI-TOF
Ms type: MS2
Ion mode: POSITIVE
Ionization: ESI
Collision energy: 0.6458333
Column name: Acquity CSHC18
Retention time: 10.792 min
Base peak: 788.52320
Precursor m/z: 788.52320
Precursor type: [M+H]+
m/z	relative intensity
81.0713	7
84.9609	12
93.0712	8
95.0866	8
105.0706	17
107.0859	14
117.071	9
119.086	32
131.0864	13
133.1019	21
136.9317	8
147.0923	8
157.1019	9
159.1167	9
161.9631	8
175.1496	8
185.1325	11
189.1642	7
192.9577	13
198.974	7
201.1635	9
203.1801	91
204.1835	14
269.226	65
270.2301	8
282.0514	8
287.2394	12
330.2806	27
343.1954	36
344.1998	9
361.2744	420
362.2782	99
363.2803	10
387.172	8
423.1586	12
479.188	165
480.1917	45
481.1926	12
484.2825	12
502.2968	7
543.1191	8
587.3842	8
588.3849	11
599.5056	12
620.2057	6
648.5075	999
649.5138	146
650.5179	29
669.4861	29
670.4862	15
670.9436	9
671.4464	8
671.9446	3
767.4637	13
788.5232	349
789.5252	181
