Mass spectrum: AMINOISOBUTANOATE; LC-ESI-QTOF; MS2; CE: 40;  [M+H]+
Name: AMINOISOBUTANOATE
Class: NA
Formula: C4H9NO2
Exact mass: 103.0633
SMILES: CC(CN)C(O)=O
InChI: InChI=1S/C4H9NO2/c1-3(2-5)4(6)7/h3H,2,5H2,1H3,(H,6,7)
Instrument: Agilent 6530Â Q-TOF LC/MS
Instrument type: LC-ESI-QTOF
Ms type: MS2
Ion mode: POSITIVE
Ionization: ESI
Collision energy: 40
Column name: NA
Retention time: 0.200 min
Base peak: 104.07064
Precursor m/z: 104.07064
Precursor type: [M+H]+
Precursor intensity: 95.5
m/z	relative intensity
41.0352	772
42.032	999
42.0877	56
42.9722	47
44.0474	584
44.1105	28
44.2056	28
45.9774	603
48.1857	37
56.5389	376
62.9263	716
64.204	348
65.0937	197
65.9071	103
69.3377	37
76.6898	103
83.2078	263
89.1715	160
90.041	122
95.906	75
98.0386	84
103.1152	37
104.7917	56
