Mass spectrum: 4-ACETAMIDOBUTANOATE; LC-ESI-QTOF; MS2; CE: 20;  [M-H]-
Name: 4-ACETAMIDOBUTANOATE
Class: NA
Formula: C6H11NO3
Exact mass: 145.07389
SMILES: CC(=O)NCCCC(O)=O
InChI: InChI=1S/C6H11NO3/c1-5(8)7-4-2-3-6(9)10/h2-4H2,1H3,(H,7,8)(H,9,10)
Instrument: Agilent 6530Â Q-TOF LC/MS
Instrument type: LC-ESI-QTOF
Ms type: MS2
Ion mode: NEGATIVE
Ionization: ESI
Collision energy: 20
Column name: NA
Retention time: 0.200 min
Base peak: 144.06422
Precursor m/z: 144.06422
Precursor type: [M-H]-
Precursor intensity: 133
m/z	relative intensity
41.0067	175
42.0135	181
52.0241	200
54.0495	202
58.0435	207
84.0504	398
98.0645	707
100.0907	952
102.0682	962
126.0574	999
