Mass spectrum: 2-Aminohexanedioic acid; LC-ESI-ITFT; MS2; CE: 45eV;  [M+H]+
Name: 2-Aminohexanedioic acid
Class: aminoacid
Formula: C6H11NO4
Exact mass: 161.0688
SMILES: C(CC(C(=O)O)N)CC(=O)O
InChI: InChI=1S/C6H11NO4/c7-4(6(10)11)2-1-3-5(8)9/h4H,1-3,7H2,(H,8,9)(H,10,11)
Instrument: LTQ Orbitrap XL, Thermo Scientfic; Dionex Ultimate 300
Instrument type: LC-ESI-ITFT
Ms type: MS2
Ion mode: POSITIVE
Ionization: ESI
Collision energy: 45eV
Column name: Alltima C18
Retention time: 2.36 min
Base peak: 162.0756
Precursor m/z: 162.0756
Precursor type: [M+H]+
m/z	relative intensity
143.9219	999
