Mass spectrum: L-Arginine; LC-ESI-ITFT; MS2; CE: 20;  [M+H]+
Name: L-Arginine
Class: Organic acids and derivatives; Carboxylic acids and derivatives; Amino acids, peptides, and analogues
Formula: C6H14N4O2
Exact mass: 174.11168
SMILES: N[C@@H](CCCNC(N)=N)C(O)=O
InChI: InChI=1S/C6H14N4O2/c7-4(5(11)12)2-1-3-10-6(8)9/h4H,1-3,7H2,(H,11,12)(H4,8,9,10)/t4-/m0/s1
Instrument: Thermo Scientific Q-Exactive Focus
Instrument type: LC-ESI-ITFT
Ms type: MS2
Ion mode: POSITIVE
Ionization: ESI
Collision energy: 20
Column name: Acquity CSHC18
Retention time: 0.631 min
Base peak: 175.11896
Precursor m/z: 175.11896
Precursor type: [M+H]+
m/z	relative intensity
60.0562	219
70.0657	999
71.0496	18
72.0812	37
92.5227	4
112.0871	20
116.0708	102
130.0976	67
158.0923	7
175.119	7
