Mass spectrum: Afzelin; LC-ESI-QFT; MS2; CE: 15,30,45 (NCE);  [M+Na]+
Name: Afzelin
Class: NA
Formula: C21H20O10
Exact mass: 432.1056
SMILES: CC1OC(OC2=C(OC3=CC(O)=CC(O)=C3C2=O)C2=CC=C(O)C=C2)C(O)C(O)C1O
InChI: InChI=1S/C21H20O10/c1-8-15(25)17(27)18(28)21(29-8)31-20-16(26)14-12(24)6-11(23)7-13(14)30-19(20)9-2-4-10(22)5-3-9/h2-8,15,17-18,21-25,27-28H,1H3
Instrument: QE Focus, Thermo Scientfic; UPLC I-Class, Waters
Instrument type: LC-ESI-QFT
Ms type: MS2
Ion mode: POSITIVE
Ionization: ESI
Collision energy: 15,30,45 (NCE)
Column name: Acquity CSHC18
Retention time: 1.829 min
Base peak: 455.0944
Precursor m/z: 455.0944
Precursor type: [M+Na]+
Precursor intensity: 24623630
m/z	relative intensity
50.5842	5
51.3514	5
52.1606	4
52.7993	4
54.1466	4
60.0074	5
71.0498	12
74.1944	5
85.029	24
91.3659	6
115.7022	5
141.8407	5
147.7568	5
169.0473	100
271.816	6
308.0282	25
309.0004	12
309.0367	522
455.0945	999
