Mass spectrum: L-ORNITHINE; LC-ESI-QFT; MS2; CE: 30eV;  [M+H]+
Name: L-ORNITHINE
Class: NA
Formula: C5H12N2O2
Exact mass: 132.08988
SMILES: NCCC[C@H](N)C(O)=O
InChI: InChI=1S/C5H12N2O2/c6-3-1-2-4(7)5(8)9/h4H,1-3,6-7H2,(H,8,9)/t4-/m0/s1
Instrument: Q-Exactive Orbitrap, Thermo Scientfic; Ultimate 3000 HPLC, Thermo Scientfic
Instrument type: LC-ESI-QFT
Ms type: MS2
Ion mode: POSITIVE
Ionization: ESI
Collision energy: 30eV
Column name: Acquity CSHC18
Retention time: 0.527 min
Base peak: 133.0972
Precursor m/z: 133.0972
Precursor type: [M+H]+
Precursor intensity: 103
m/z	relative intensity
52.638	5
53.7158	4
58.0659	4
58.696	3
68.05	8
68.9529	6
69.0586	4
71.0499	19
71.0629	21
71.0692	402
71.7893	4
72.9379	5
76.0482	4
86.9933	7
87.0924	25
88.0399	6
88.0764	20
90.9482	8
92.901	83
92.904	10
97.0766	46
98.061	5
105.0038	25
105.0705	12
110.9116	18
114.0454	4
115.0871	999
116.0897	45
116.9729	4
117.068	18
117.0744	294
122.723	5
124.989	8
125.9612	5
133.0652	6
133.0975	458
134.1009	20
139.4971	4
142.2538	4
142.484	4
150.976	5
151.0092	6
151.9376	11
