Mass spectrum: Aldosterone; LC-ESI-ITFT; MS2; CE: 10;  [M-H]-
Name: Aldosterone
Class: Lipids and lipid-like molecules; Steroids and steroid derivatives; Hydroxysteroids
Formula: C21H28O5
Exact mass: 360.19367
SMILES: C[C@]12CCC(=O)C=C1CCC1C3CC[C@H](C(=O)CO)[C@]3(C[C@H](O)C21)C=O
InChI: InChI=1S/C21H28O5/c1-20-7-6-13(24)8-12(20)2-3-14-15-4-5-16(18(26)10-22)21(15,11-23)9-17(25)19(14)20/h8,11,14-17,19,22,25H,2-7,9-10H2,1H3/t14?,15?,16-,17+,19?,20+,21-/m1/s1
Instrument: Thermo Scientific Q-Exactive Focus
Instrument type: LC-ESI-ITFT
Ms type: MS2
Ion mode: NEGATIVE
Ionization: ESI
Collision energy: 10
Column name: Acquity CSHC18
Retention time: 0.364 min
Base peak: 359.18640
Precursor m/z: 359.18640
Precursor type: [M-H]-
m/z	relative intensity
189.0914	124
290.9338	53
297.1857	85
302.9848	26
315.1964	23
331.1912	278
341.1754	20
359.1761	63
359.1863	999
375.1808	41
