Mass spectrum: (2-AMINOETHYL)PHOSPHONATE; LC-ESI-QTOF; MS2; CE: 40;  [M-H]-
Name: (2-AMINOETHYL)PHOSPHONATE
Class: NA
Formula: C2H8NO3P
Exact mass: 125.02418
SMILES: NCCP(O)(O)=O
InChI: InChI=1S/C2H8NO3P/c3-1-2-7(4,5)6/h1-3H2,(H2,4,5,6)
Instrument: Agilent 6530Â Q-TOF LC/MS
Instrument type: LC-ESI-QTOF
Ms type: MS2
Ion mode: NEGATIVE
Ionization: ESI
Collision energy: 40
Column name: NA
Retention time: 0.200 min
Base peak: 124.01503
Precursor m/z: 124.01503
Precursor type: [M-H]-
Precursor intensity: 118
m/z	relative intensity
46.0018	267
61.9963	343
62.9777	677
78.975	999
