Mass spectrum: 15-keto Latanoprost (free acid); ESI-TOF; MS2; CE: 6.0000000;  [M+H]+
Name: 15-keto Latanoprost (free acid)
Class: NA
Formula: C23H32O5
Exact mass: 388.22497
SMILES: O[C@@H]1[C@H](C/C=C\CCCC(O)=O)[C@@H](CCC(CCC2=CC=CC=C2)=O)[C@H](O)C1
InChI: InChI=1S/C23H32O5/c24-18(13-12-17-8-4-3-5-9-17)14-15-20-19(21(25)16-22(20)26)10-6-1-2-7-11-23(27)28/h1,3-6,8-9,19-22,25-26H,2,7,10-16H2,(H,27,28)/b6-1-/t19-,20-,21+,22-/m1/s1
Instrument: waters xevo g2 TOF
Instrument type: ESI-TOF
Ms type: MS2
Ion mode: POSITIVE
Ionization: ESI
Collision energy: 6.0000000
Column name: Acquity CSHC18
Retention time: 3.556 min
Base peak: 389.23297
Precursor m/z: 389.23297
Precursor type: [M+H]+
m/z	relative intensity
105.071	37
117.0709	4
143.0861	6
167.0718	25
169.1019	39
175.1475	10
183.1046	13
185.1147	77
186.1353	6
187.1121	54
195.1095	10
196.0827	58
203.144	68
205.1226	321
205.5895	7
206.1258	29
209.1316	2
214.0923	26
227.1447	16
231.1363	5
233.1429	10
241.1587	6
251.1428	22
299.1807	27
317.1971	205
318.1923	44
327.1934	10
335.201	565
336.2033	138
353.2111	999
354.2137	247
355.2178	23
371.1766	344
372.2257	182
373.2322	25
389.2272	2
