Mass spectrum: Methyl benzoate; LC-ESI-ITFT; MS2; CE: 60;  [M+H]+
Name: Methyl benzoate
Class: Benzenoids; Benzene and substituted derivatives; Benzoic acids and derivatives
Formula: C8H8O2
Exact mass: 136.05243
SMILES: COC(=O)C1=CC=CC=C1
InChI: InChI=1S/C8H8O2/c1-10-8(9)7-5-3-2-4-6-7/h2-6H,1H3
Instrument: Thermo Scientific Q-Exactive Focus
Instrument type: LC-ESI-ITFT
Ms type: MS2
Ion mode: POSITIVE
Ionization: ESI
Collision energy: 60
Column name: Acquity CSHC18
Retention time: 2.015 min
Base peak: 137.05971
Precursor m/z: 137.05971
Precursor type: [M+H]+
m/z	relative intensity
50.0157	409
51.0236	999
51.9406	268
53.0028	379
53.0392	195
55.935	189
65.0392	137
67.9354	385
79.0064	238
95.0495	258
