Mass spectrum: 14-Hydroxy-Costunolide-Glutathione; LC-ESI-ITFT; MS2; CE: 50eV;  [M+H]+
Name: 14-Hydroxy-Costunolide-Glutathione
Class: Sesquiterpenelactone; Germacrolide
Formula: C25H35N3O9S
Exact mass: 553.2094
SMILES: O=C(O)[C@@H](N)CCC(=O)N[C@@H](CS\C=C1\[C@@H]2CCC(=CCCC(C)=C[C@H]2OC1=O)CO)C(=O)NCC(=O)O
InChI: InChI=1S/C25H35N3O9S/c1-14-3-2-4-15(11-29)5-6-16-17(25(36)37-20(16)9-14)12-38-13-19(23(33)27-10-22(31)32)28-21(30)8-7-18(26)24(34)35/h4,9,12,16,18-20,29H,2-3,5-8,10-11,13,26H2,1H3,(H,27,33)(H,28,30)(H,31,32)(H,34,35)/b14-9?,15-4?,17-12-/t16-,18-,19-,20+/m0/s1
Instrument: Q Exactive Plus, ThermoFisher Scientific
Instrument type: LC-ESI-ITFT
Ms type: MS2
Ion mode: POSITIVE
Ionization: ESI
Collision energy: 50eV
Column name: Acquity CSHC18
Retention time: 5.718 min
Base peak: 554.2155
Precursor m/z: 554.2155
Precursor type: [M+H]+
Precursor intensity: 4963048
m/z	relative intensity
95.0678	63
121.083	82
133.0825	93
135.0984	103
145.0799	110
159.0985	144
161.0778	159
165.0545	162
179.0587	192
199.0913	199
211.0756	262
219.1294	303
233.0978	999
