Mass spectrum: isovaleryl-coenzyme A; LC-ESI-QTOF; MS2; CE: -10, -35, -60V;  [M-H]-
Name: isovaleryl-coenzyme A
Class: NA
Formula: C26H44N7O17P3S
Exact mass: 851.1727
SMILES: CC(C)CC(=O)SCCNC(=O)CCNC(=O)C(C(C)(C)COP(=O)(O)OP(=O)(O)OCC1C(C(C(O1)N2C=NC3=C(N=CN=C32)N)O)OP(=O)(O)O)O
InChI: InChI=1S/C26H44N7O17P3S/c1-14(2)9-17(35)54-8-7-28-16(34)5-6-29-24(38)21(37)26(3,4)11-47-53(44,45)50-52(42,43)46-10-15-20(49-51(39,40)41)19(36)25(48-15)33-13-32-18-22(27)30-12-31-23(18)33/h12-15,19-21,25,36-37H,5-11H2,1-4H3,(H,28,34)(H,29,38)(H,42,43)(H,44,45)(H2,27,30,31)(H2,39,40,41)
Instrument: TripleToF 5600; Sciex
Instrument type: LC-ESI-QTOF
Ms type: MS2
Ion mode: NEGATIVE
Ionization: ESI
Collision energy: -10, -35, -60V
Column name: Acquity CSHC18
Retention time: 16.748 min
Base peak: 850.1460
Precursor m/z: 850.1460
Precursor type: [M-H]-
Precursor intensity: 105935.2
m/z	relative intensity
78.9589	31
96.9754	5
134.0489	36
135.0477	3
158.9242	80
174.9793	7
176.9378	7
211.0132	1
254.9488	3
270.982	16
272.9607	63
290.9706	9
328.0513	55
339.0853	71
340.0816	9
341.1028	4
346.0612	20
352.9356	3
357.0927	19
401.0422	16
408.015	273
409.0193	48
410.0191	10
419.0521	186
420.0526	35
421.0542	15
423.0842	1
426.0276	167
427.0276	24
437.0591	66
469.9739	2
487.978	14
510.0913	8
631.0577	16
632.0795	3
668.1509	7
686.1496	106
687.1632	27
688.1515	10
748.1149	13
766.1214	303
767.1141	86
768.1075	33
770.1589	8
772.1738	2
840.0925	7
848.1226	1
850.1423	999
