Mass spectrum: ADENOSINE 2',3'-CYCLIC PHOSPHATE; LC-ESI-QTOF; MS2; CE: 40;  [M+H]+
Name: ADENOSINE 2',3'-CYCLIC PHOSPHATE
Class: NA
Formula: C10H12N5O6P
Exact mass: 329.0525
SMILES: NC1=NC=NC2=C1N=CN2C1OC(CO)C2OP(O)(=O)OC12
InChI: InChI=1S/C10H12N5O6P/c11-8-5-9(13-2-12-8)15(3-14-5)10-7-6(4(1-16)19-10)20-22(17,18)21-7/h2-4,6-7,10,16H,1H2,(H,17,18)(H2,11,12,13)
Instrument: Agilent 6530Â Q-TOF LC/MS
Instrument type: LC-ESI-QTOF
Ms type: MS2
Ion mode: POSITIVE
Ionization: ESI
Collision energy: 40
Column name: NA
Retention time: 0.200 min
Base peak: 330.05945
Precursor m/z: 330.05945
Precursor type: [M+H]+
Precursor intensity: 62.5
m/z	relative intensity
41.0368	20
62.9641	20
69.0333	21
80.9725	24
84.0818	24
87.0433	25
94.0326	37
94.9863	50
97.0267	56
98.984	128
119.033	204
122.982	221
136.0589	289
136.7029	999
147.0656	20
164.9778	20
