Mass spectrum: 2-Phenylglycine; ESI-TOF; MS2; CE: 0.6458333;  [M+H]+
Name: 2-Phenylglycine
Class: NA
Formula: C8H9NO2
Exact mass: 151.06333
SMILES: NC(C(O)=O)C1=CC=CC=C1
InChI: InChI=1S/C8H9NO2/c9-7(8(10)11)6-4-2-1-3-5-6/h1-5,7H,9H2,(H,10,11)
Instrument: waters xevo g2 TOF
Instrument type: ESI-TOF
Ms type: MS2
Ion mode: POSITIVE
Ionization: ESI
Collision energy: 0.6458333
Column name: Acquity CSHC18
Retention time: 0.626 min
Base peak: 152.07133
Precursor m/z: 152.07133
Precursor type: [M+H]+
m/z	relative intensity
77.0397	109
77.0398	181
79.0554	649
79.0555	999
80.0587	81
80.0588	42
100.9918	11
101.9406	23
101.941	33
101.9416	34
106.0657	12
106.0659	37
107.05	214
107.0502	511
108.053	13
108.0535	38
113.9642	34
113.9649	37
135.045	168
135.0451	314
136.0483	1
151.9233	34
201.8833	3
