Mass spectrum: CDP-ETHANOLAMINE; LC-ESI-QTOF; MS2; CE: 20;  [M+H]+
Name: CDP-ETHANOLAMINE
Class: NA
Formula: C11H20N4O11P2
Exact mass: 446.06038
SMILES: NCCOP(O)(=O)OP(O)(=O)OC[C@H]1O[C@H]([C@H](O)[C@@H]1O)N1C=CC(N)=NC1=O
InChI: InChI=1S/C11H20N4O11P2/c12-2-4-23-27(19,20)26-28(21,22)24-5-6-8(16)9(17)10(25-6)15-3-1-7(13)14-11(15)18/h1,3,6,8-10,16-17H,2,4-5,12H2,(H,19,20)(H,21,22)(H2,13,14,18)/t6-,8-,9-,10-/m1/s1
Instrument: Agilent 6530Â Q-TOF LC/MS
Instrument type: LC-ESI-QTOF
Ms type: MS2
Ion mode: POSITIVE
Ionization: ESI
Collision energy: 20
Column name: NA
Retention time: 0.200 min
Base peak: 447.06354
Precursor m/z: 447.06354
Precursor type: [M+H]+
Precursor intensity: 191.5
m/z	relative intensity
95.0141	27
95.0196	26
97.0132	28
97.0188	83
97.0245	108
97.0301	92
97.0358	72
97.0414	57
97.0471	46
97.0527	34
97.0584	27
112.0323	259
112.0384	746
112.0445	999
112.0505	926
112.0566	746
112.0627	570
112.0687	434
112.0748	332
112.0809	249
112.0869	187
112.093	142
112.0991	98
112.1051	68
112.1112	54
112.1173	47
112.1234	35
112.1294	24
124.0074	27
124.0138	34
124.0202	30
124.0266	23
324.0302	40
324.0406	60
324.0509	58
324.0612	47
324.0715	37
324.0818	24
