Mass spectrum: GLUCOSAMINE 6-PHOSPHATE; LC-ESI-QTOF; MS2; CE: 10;  [M-H]-
Name: GLUCOSAMINE 6-PHOSPHATE
Class: NA
Formula: C6H14NO8P
Exact mass: 259.04570
SMILES: N[C@H]1[C@@H](O)O[C@H](COP(O)(O)=O)[C@@H](O)[C@@H]1O
InChI: InChI=1S/C6H14NO8P/c7-3-5(9)4(8)2(15-6(3)10)1-14-16(11,12)13/h2-6,8-10H,1,7H2,(H2,11,12,13)/t2-,3-,4-,5-,6+/m1/s1
Instrument: Agilent 6530Â Q-TOF LC/MS
Instrument type: LC-ESI-QTOF
Ms type: MS2
Ion mode: NEGATIVE
Ionization: ESI
Collision energy: 10
Column name: NA
Retention time: 0.200 min
Base peak: 258.03816
Precursor m/z: 258.03816
Precursor type: [M-H]-
Precursor intensity: 197
m/z	relative intensity
78.9771	141
96.9878	171
138.9803	214
199.0008	383
240.0287	997
258.0423	999
