Mass spectrum: adenosine; LC-ESI-QTOF; MS2; CE: -10, -35, -60V;  [M-H]-
Name: adenosine
Class: NA
Formula: C10H13N5O4
Exact mass: 267.0968
SMILES: C1=NC(=C2C(=N1)N(C=N2)C3C(C(C(O3)CO)O)O)N
InChI: InChI=1S/C10H13N5O4/c11-8-5-9(13-2-12-8)15(3-14-5)10-7(18)6(17)4(1-16)19-10/h2-4,6-7,10,16-18H,1H2,(H2,11,12,13)
Instrument: TripleToF 5600; Sciex
Instrument type: LC-ESI-QTOF
Ms type: MS2
Ion mode: NEGATIVE
Ionization: ESI
Collision energy: -10, -35, -60V
Column name: Acquity CSHC18
Retention time: 2.657 min
Base peak: 266.0911
Precursor m/z: 266.0911
Precursor type: [M-H]-
Precursor intensity: 71967
m/z	relative intensity
134.0412	346
134.0494	999
