Mass spectrum: Nicotianoside II; LC-ESI-QTOF; MS2; CE: 30eV;  [M+NH4]+
Name: Nicotianoside II
Class: NA
Formula: C44H68O22
Exact mass: 948.4202
SMILES: CC1C(C(C(C(O1)OC2C(OC(C(C2O)O)OC(C)(CCC=C(C)CCC=C(C)CCC=C(C)COC3C(C(C(C(O3)COC(=O)CC(=O)O)O)O)O)C=C)COC(=O)CC(=O)O)O)O)O
InChI: InChI=1S/C44H68O22/c1-7-44(6,66-43-39(58)36(55)40(27(64-43)21-60-31(50)18-29(47)48)65-42-38(57)34(53)32(51)25(5)62-42)16-10-15-23(3)12-8-11-22(2)13-9-14-24(4)19-61-41-37(56)35(54)33(52)26(63-41)20-59-30(49)17-28(45)46/h7,11,14-15,25-27,32-43,51-58H,1,8-10,12-13,16-21H2,2-6H3,(H,45,46)(H,47,48)
Instrument: Impact II qTOF
Instrument type: LC-ESI-QTOF
Ms type: MS2
Ion mode: POSITIVE
Ionization: ESI
Collision energy: 30eV
Column name: Acquity CSH C18 column (particle size 1.7 μm, column length 2.1 × 50 mm) (Waters)
Retention time: 7.34 min
Base peak: 966.4568
Precursor m/z: 966.4568
Precursor type: [M+NH4]+
m/z	relative intensity
149.1331	45
161.1326	46
163.1481	63
189.1637	37
203.1788	43
215.1793	103
249.0606	228
271.2422	999
272.2454	195
289.2532	69
341.086	52
359.097	175
377.1079	117
395.1188	346
396.1224	63
399.2885	46
417.2999	176
418.3025	50
461.0926	40
479.1025	77
497.1114	87
519.2954	54
537.3062	42
554.3333	52
966.4586	177
