Mass spectrum: Norepinephrine; LC-ESI-ITFT; MS2; CE: 60;  [M-H]-
Name: Norepinephrine
Class: Benzenoids; Phenols; Benzenediols
Formula: C8H11NO3
Exact mass: 169.07389
SMILES: NC[C@H](O)C1=CC(O)=C(O)C=C1
InChI: InChI=1S/C8H11NO3/c9-4-8(12)5-1-2-6(10)7(11)3-5/h1-3,8,10-12H,4,9H2/t8-/m0/s1
Instrument: Thermo Scientific Q-Exactive Focus
Instrument type: LC-ESI-ITFT
Ms type: MS2
Ion mode: NEGATIVE
Ionization: ESI
Collision energy: 60
Column name: Acquity CSHC18
Retention time: 1.761 min
Base peak: 168.06662
Precursor m/z: 168.06662
Precursor type: [M-H]-
m/z	relative intensity
55.7268	867
87.7668	874
99.1815	867
146.4222	909
151.0548	999
169.6033	946
171.4155	855
180.2454	859
184.7208	899
188.3934	874
