Mass spectrum: GLYCEROL 3-PHOSPHATE; LC-ESI-QFT; MS2; CE: 30eV;  [M+H]+
Name: GLYCEROL 3-PHOSPHATE
Class: NA
Formula: C3H9O6P
Exact mass: 172.01367
SMILES: OC[C@@H](O)COP(O)(O)=O
InChI: InChI=1S/C3H9O6P/c4-1-3(5)2-9-10(6,7)8/h3-5H,1-2H2,(H2,6,7,8)/t3-/m1/s1
Instrument: Q-Exactive Orbitrap, Thermo Scientfic; Ultimate 3000 HPLC, Thermo Scientfic
Instrument type: LC-ESI-QFT
Ms type: MS2
Ion mode: POSITIVE
Ionization: ESI
Collision energy: 30eV
Column name: Acquity CSHC18
Retention time: 0.575 min
Base peak: 173.0210
Precursor m/z: 173.0210
Precursor type: [M+H]+
Precursor intensity: 192
m/z	relative intensity
51.9409	2
52.7186	1
54.4522	1
54.8427	1
55.0838	1
56.7807	1
57.0344	23
58.6113	1
61.3983	1
66.7027	2
67.4271	1
69.0707	1
72.0817	2
72.9379	2
75.0449	24
76.1962	1
77.0884	1
85.3031	2
85.9463	2
85.9683	1
89.9405	3
90.904	117
90.9485	11
92.9673	2
98.4355	1
98.9849	999
102.1285	3
103.9569	3
107.3322	1
107.9511	4
108.9143	28
110.9779	2
113.9411	2
114.9721	9
116.1076	2
116.9954	23
118.9286	1
120.519	1
125.9616	14
126.925	8
126.9725	13
128.9882	2
130.9668	18
131.9303	242
131.9513	13
131.9747	4
143.9751	2
144.983	11
145.0269	2
145.9449	1
148.9775	60
149.9409	609
149.9616	36
149.9798	2
150.9436	3
151.9452	2
155.9748	3
159.3395	2
167.9515	55
167.9723	12
172.134	3
172.1532	2
172.978	12
173.0214	25
173.0795	7
173.0866	3
173.9855	2
194.894	2
