Mass spectrum: trans-sinapic acid; LC-ESI-ITFT; MS2; CE: 0.3;  [M-H]-
Name: trans-sinapic acid
Class: phenolic acids
Formula: C11H12O5
Exact mass: 224.0685
SMILES: COC1=CC(=CC(=C1O)OC)C=CC(=O)O
InChI: InChI=1S/C11H12O5/c1-15-8-5-7(3-4-10(12)13)6-9(16-2)11(8)14/h3-6,14H,1-2H3,(H,12,13)
Instrument: LTQ-Orbitrap XL hybrid mass spectrometer (Thermo Scientific)
Instrument type: LC-ESI-ITFT
Ms type: MS2
Ion mode: NEGATIVE
Ionization: ESI
Collision energy: 0.3
Column name: Acquity CSHC18
Retention time: 7.320 min
Base peak: 223.0612
Precursor m/z: 223.0612
Precursor type: [M-H]-
Precursor intensity: 14213690
m/z	relative intensity
53.6667	3
53.8382	8
66.5971	2
71.7959	4
71.7973	4
78.6368	2
79.4073	2
83.6107	2
90.6893	2
95.2536	2
118.1533	2
120.7194	2
149.0249	13
151.0406	4
163.1378	2
164.0483	380
164.6592	3
164.9665	2
178.3785	3
179.0718	410
179.7689	3
180.119	2
196.1409	9
206.3082	2
206.7385	8
207.1704	5
207.3433	3
208.0168	2
208.0188	6
208.038	999
208.0507	5
208.0527	5
208.7361	4
208.9112	7
209.3499	8
209.79	2
221.6184	3
223.0614	426
