Mass spectrum: Gallocatechin; LC-ESI-QFT; MS2; CE: NCE_15_30_61;  [M-H]-
Name: Gallocatechin
Class: NA
Formula: C15H14O7
Exact mass: 306.0740
SMILES: C1C(C(OC2=CC(=CC(=C21)O)O)C3=CC(=C(C(=C3)O)O)O)O
InChI: InChI=1S/C15H14O7/c16-7-3-9(17)8-5-12(20)15(22-13(8)4-7)6-1-10(18)14(21)11(19)2-6/h1-4,12,15-21H,5H2
Instrument: Thermo_Qexactive_Plus
Instrument type: LC-ESI-QFT
Ms type: MS2
Ion mode: NEGATIVE
Ionization: ESI
Collision energy: NCE_15_30_61
Column name: Acquity CSHC18
Retention time: 2.153 min
Base peak: 305.0670
Precursor m/z: 305.0670
Precursor type: [M-H]-
Precursor intensity: 531531200
m/z	relative intensity
57.033	15
64.0421	15
66.5669	15
69.0143	15
70.2757	15
76.5987	15
79.3677	16
81.0333	16
83.0127	17
93.0333	17
95.0481	17
97.028	17
109.028	17
111.0436	17
116.765	18
123.0235	18
124.0154	18
125.023	18
126.0263	19
135.0445	20
135.9218	20
137.0249	21
138.0277	21
139.0399	22
140.0429	22
144.0259	25
147.0449	25
149.0585	25
151.0391	26
159.044	26
161.0247	27
163.0397	27
164.0108	27
164.4998	27
165.0182	27
166.0242	28
167.0342	29
168.0379	29
173.0599	30
175.0536	31
177.0373	35
178.0263	35
179.033	37
180.0382	38
181.0507	38
187.0742	39
191.0578	43
200.1586	44
201.0547	45
203.0342	51
204.0416	58
215.0717	60
218.0582	64
219.065	67
220.0695	70
221.0451	80
222.0475	83
233.0816	120
237.078	155
240.0998	204
243.0683	235
245.0465	262
247.025	272
261.0777	294
263.0574	319
273.1419	343
287.0558	759
305.0682	999
