Mass spectrum: Epinephrine; LC-ESI-ITFT; MS2; CE: 60;  [M-H]-
Name: Epinephrine
Class: Benzenoids; Phenols; Benzenediols
Formula: C9H13NO3
Exact mass: 183.08954
SMILES: CNC[C@H](O)C1=CC(O)=C(O)C=C1
InChI: InChI=1S/C9H13NO3/c1-10-5-9(13)6-2-3-7(11)8(12)4-6/h2-4,9-13H,5H2,1H3/t9-/m0/s1
Instrument: Thermo Scientific Q-Exactive Focus
Instrument type: LC-ESI-ITFT
Ms type: MS2
Ion mode: NEGATIVE
Ionization: ESI
Collision energy: 60
Column name: Acquity CSHC18
Retention time: 2.026 min
Base peak: 182.08228
Precursor m/z: 182.08228
Precursor type: [M-H]-
m/z	relative intensity
68.7152	734
93.0334	783
97.9383	858
115.372	758
117.5669	939
138.1698	749
142.0561	797
190.9769	788
191.8308	999
194.6648	854
