Mass spectrum: Nonadecanoic acid; LC-ESI-ITFT; MS2; CE: 60;  [M-H]-
Name: Nonadecanoic acid
Class: Lipids and lipid-like molecules; Fatty Acyls; Fatty acids and conjugates
Formula: C19H38O2
Exact mass: 298.28718
SMILES: CCCCCCCCCCCCCCCCCCC(O)=O
InChI: InChI=1S/C19H38O2/c1-2-3-4-5-6-7-8-9-10-11-12-13-14-15-16-17-18-19(20)21/h2-18H2,1H3,(H,20,21)
Instrument: Thermo Scientific Q-Exactive Focus
Instrument type: LC-ESI-ITFT
Ms type: MS2
Ion mode: NEGATIVE
Ionization: ESI
Collision energy: 60
Column name: Acquity CSHC18
Retention time: 2.026 min
Base peak: 297.27991
Precursor m/z: 297.27991
Precursor type: [M-H]-
m/z	relative intensity
79.9561	607
92.5136	22
93.0001	58
104.9851	60
119.0491	999
133.0649	16
154.9588	28
183.0113	817
197.0272	20
212.9345	11
