Mass spectrum: N-ACETYLMANNOSAMINE; LC-ESI-QTOF; MS2; CE: 20;  [M-H]-
Name: N-ACETYLMANNOSAMINE
Class: NA
Formula: C8H15NO6
Exact mass: 221.08994
SMILES: [H][C@@]1(O)O[C@H](CO)[C@@H](O)[C@H](O)[C@@H]1NC(C)=O
InChI: InChI=1S/C8H15NO6/c1-3(11)9-5-7(13)6(12)4(2-10)15-8(5)14/h4-8,10,12-14H,2H2,1H3,(H,9,11)/t4-,5+,6-,7-,8-/m1/s1
Instrument: Agilent 6530Â Q-TOF LC/MS
Instrument type: LC-ESI-QTOF
Ms type: MS2
Ion mode: NEGATIVE
Ionization: ESI
Collision energy: 20
Column name: NA
Retention time: 0.200 min
Base peak: 220.08510
Precursor m/z: 220.08510
Precursor type: [M-H]-
Precursor intensity: 137
m/z	relative intensity
42.0053	101
43.0242	103
57.0034	152
58.0406	157
59.0256	176
60.0166	188
71.0118	204
82.0356	213
82.9909	316
89.0265	442
100.0417	999
