Mass spectrum: Malonylgenistin; LC-ESI-QTOF; MS2; CE: 20-40eV;  [M+H]+
Name: Malonylgenistin
Class: flavonoid
Formula: C24H22O13
Exact mass: 518.1060
SMILES: C=1C=C(C=CC1C2=COC3=CC(=CC(=C3C2=O)O)OC4(C(C(C(C(COC(CC(=O)O)=O)(O4)[H])(O)[H])(O)[H])(O)[H])[H])O
InChI: InChI=1S/C24H22O13/c25-11-3-1-10(2-4-11)13-8-34-15-6-12(5-14(26)19(15)20(13)30)36-24-23(33)22(32)21(31)16(37-24)9-35-18(29)7-17(27)28/h1-6,8,16,21-26,31-33H,7,9H2,(H,27,28)
Instrument: Impact II, Bruker; Dionex 3000, Thermo Scientific
Instrument type: LC-ESI-QTOF
Ms type: MS2
Ion mode: POSITIVE
Ionization: ESI
Collision energy: 20-40eV
Column name: Acquity CSHC18
Retention time: 7.013 min
Base peak: 519.1118
Precursor m/z: 519.1118
Precursor type: [M+H]+
Precursor intensity: 2530.38
m/z	relative intensity
107.0468	28
271.0594	999
272.0618	114
273.0689	45
409.5649	29
435.1131	28
519.1148	231
