Mass spectrum: o-Tyrosine; ESI-TOF; MS2; CE: 6.0000000;  [M+H]+
Name: o-Tyrosine
Class: NA
Formula: C9H11NO3
Exact mass: 181.07389
SMILES: NC(CC1=CC=CC=C1O)C(O)=O
InChI: InChI=1S/C9H11NO3/c10-7(9(12)13)5-6-3-1-2-4-8(6)11/h1-4,7,11H,5,10H2,(H,12,13)
Instrument: waters xevo g2 TOF
Instrument type: ESI-TOF
Ms type: MS2
Ion mode: POSITIVE
Ionization: ESI
Collision energy: 6.0000000
Column name: Acquity CSHC18
Retention time: 1.127 min
Base peak: 182.08189
Precursor m/z: 182.08189
Precursor type: [M+H]+
m/z	relative intensity
119.0495	105
120.0531	7
123.0447	24
130.0083	3
136.076	999
137.0792	68
138.0822	2
147.0441	44
164.071	8
165.055	107
166.0589	6
170.9828	4
182.0817	600
183.0848	64
184.0861	3
