Mass spectrum: Betaine; LC-ESI-QTOF; MS2; CE: 15.00;  [M+H]+
Name: Betaine
Class: NA
Formula: C5H11NO2
Exact mass: 117.0790
SMILES: C[N+](C)(C)CC(=O)[O-]
InChI: InChI=1S/C5H11NO2/c1-6(2,3)4-5(7)8/h4H2,1-3H3
Instrument: Bruker MicrOTOF-Q
Instrument type: LC-ESI-QTOF
Ms type: MS2
Ion mode: POSITIVE
Ionization: ESI
Collision energy: 15.00
Column name: Acquity CSHC18
Retention time: NA
Base peak: 118.0863
Precursor m/z: 118.0863
Precursor type: [M+H]+
m/z	relative intensity
102.0593	1
118.0865	999
118.1913	1
118.2296	1
118.2715	1
118.3325	1
118.4111	1
118.4481	1
119.0892	53
120.0905	1
