Mass spectrum: Vitexin 6''-O-malonyl 2''-O-xyloside; LC-ESI-QTOF; MS2; CE: 20-40eV;  [M+H]+
Name: Vitexin 6''-O-malonyl 2''-O-xyloside
Class: Flavonoid C- glycosides
Formula: C29H30O17
Exact mass: 650.1483
SMILES: C=1C=C(C=CC1C2=CC(C=3C(=CC(=C(C3O2)C4(C(C(C(C(COC(CC(=O)O)=O)(O4)[H])(O)[H])(O)[H])(OC5(C(C(C(CO5)(O)[H])(O)[H])(O)[H])[H])[H])[H])O)O)=O)O
InChI: InChI=1S/C29H30O17/c30-11-3-1-10(2-4-11)16-6-14(33)20-12(31)5-13(32)21(26(20)44-16)27-28(46-29-25(41)22(38)15(34)8-43-29)24(40)23(39)17(45-27)9-42-19(37)7-18(35)36/h1-6,15,17,22-25,27-32,34,38-41H,7-9H2,(H,35,36)
Instrument: Impact II, Bruker; Dionex 3000, Thermo Scientific
Instrument type: LC-ESI-QTOF
Ms type: MS2
Ion mode: POSITIVE
Ionization: ESI
Collision energy: 20-40eV
Column name: Acquity CSHC18
Retention time: 5.120 min
Base peak: 651.1546
Precursor m/z: 651.1546
Precursor type: [M+H]+
Precursor intensity: 967237.3
m/z	relative intensity
297.0583	314
323.0731	614
324.0773	746
651.3064	999
