Mass spectrum: 8-Hydroxykaempferol; LC-ESI-QTOF; MS2; CE: 50eV;  [M-H]-
Name: 8-Hydroxykaempferol
Class: Flavonol
Formula: C15H10O7
Exact mass: 302.0427
SMILES: C1=CC(=CC=C1C2=C(C(=O)C3=C(O2)C(=C(C=C3O)O)O)O)O
InChI: InChI=1S/C15H10O7/c16-7-3-1-6(2-4-7)14-13(21)12(20)10-8(17)5-9(18)11(19)15(10)22-14/h1-5,16-19,21H
Instrument: TIMS-TOF Pro, Bruker Daltonik; Elute UHPLC System, Bruker Daltonik
Instrument type: LC-ESI-QTOF
Ms type: MS2
Ion mode: NEGATIVE
Ionization: ESI
Collision energy: 50eV
Column name: Acquity CSHC18
Retention time: 6.520 min
Base peak: 301.0312
Precursor m/z: 301.0312
Precursor type: [M-H]-
Precursor intensity: 63450.44
m/z	relative intensity
41.0025	7
62.015	1
65.0016	16
67.0192	4
68.0233	2
70.3723	2
77.0373	2
78.0105	2
80.0217	3
82.0043	5
89.0367	2
93.0337	12
94.005	2
95.012	22
96.0214	4
104.0242	4
108.0195	6
109.0115	3
110.8084	2
111.0076	33
112.01	3
113.3406	2
116.0235	3
118.0345	4
119.0474	5
121.0288	3
123.0073	18
124.0149	15
125.0178	3
128.0238	3
130.0423	4
131.0494	10
132.0187	11
133.0278	24
134.0299	3
135.0413	2
136.9868	7
139.0001	7
141.0318	3
142.0448	2
143.0482	6
145.0275	5
149.0213	2
151.0007	4
152.0099	5
153.0166	2
155.0459	5
155.6236	2
157.0292	9
158.0346	7
159.0431	9
160.0449	3
161.1818	3
165.9874	2
170.8058	4
173.0593	1
179.6274	3
196.0468	2
200.0497	2
204.1404	2
211.0349	3
214.741	2
229.0476	7
230.015	2
239.0284	1
256.036	1
272.0237	8
283.0158	3
300.9355	2
301.0312	999
301.4362	3
301.5211	4
