Mass spectrum: 17-phenyl trinor Prostaglandin F2-alpha ethyl amide; ESI-TOF; MS2; CE: 0.6458333;  [M+H]+
Name: 17-phenyl trinor Prostaglandin F2-alpha ethyl amide
Class: NA
Formula: C25H37NO4
Exact mass: 415.27226
SMILES: CCN([H])C(CCC/C=C\C[C@@H]1[C@@H](/C=C/[C@@H](O)CCC2=CC=CC=C2)[C@H](O)C[C@@H]1O)=O
InChI: InChI=1S/C25H37NO4/c1-2-26-25(30)13-9-4-3-8-12-21-22(24(29)18-23(21)28)17-16-20(27)15-14-19-10-6-5-7-11-19/h3,5-8,10-11,16-17,20-24,27-29H,2,4,9,12-15,18H2,1H3,(H,26,30)/b8-3-,17-16+/t20-,21+,22+,23-,24+/m0/s1
Instrument: waters xevo g2 TOF
Instrument type: ESI-TOF
Ms type: MS2
Ion mode: POSITIVE
Ionization: ESI
Collision energy: 0.6458333
Column name: Acquity CSHC18
Retention time: 3.389 min
Base peak: 416.28026
Precursor m/z: 416.28026
Precursor type: [M+H]+
m/z	relative intensity
72.0446	58
91.0549	937
92.0576	44
100.0747	29
107.0866	55
114.0935	298
117.071	732
118.0747	62
119.0867	125
128.1081	210
129.0708	378
130.0745	41
131.0866	999
132.09	105
141.0709	214
142.1221	20
143.0868	459
144.086	22
156.139	20
158.1367	151
159.1176	121
166.1229	11
170.1075	26
180.0908	29
181.1011	135
184.1276	79
186.1005	21
187.1123	139
192.1408	2
193.1025	132
194.1318	9
195.117	150
196.1701	107
196.5988	21
197.1527	62
200.1164	22
200.5994	2
205.1016	54
206.153	32
207.1174	244
208.122	48
209.1318	73
209.6071	5
210.1089	2
213.1289	139
214.1308	19
218.6125	2
219.1154	110
220.1455	7
221.1327	139
222.16	16
223.1486	13
224.1598	9
227.6137	2
231.1175	35
232.1702	64
233.1722	2
234.184	6
237.1279	18
239.1427	60
244.1684	2
246.1863	7
247.1459	51
249.1638	143
250.1761	33
257.1351	27
258.1902	2
259.19	2
261.1651	21
271.1535	26
273.1605	103
275.1801	568
282.1934	2
284.2005	2
289.1943	96
290.1981	16
291.1746	71
307.1939	14
317.2004	490
318.204	123
319.2047	12
324.2289	2
325.2353	2
326.2482	2
327.2512	2
328.2564	2
335.2018	2
336.2308	112
337.2358	2
350.2452	2
352.262	2
354.2422	26
355.2351	2
356.2508	2
362.2483	592
363.252	103
364.2546	2
365.2555	2
373.2374	14
379.1591	49
380.2578	105
381.2589	20
382.2651	2
392.1864	137
395.2242	26
398.2698	61
399.2733	2
400.2781	2
401.2779	2
406.1533	18
408.1652	98
