Mass spectrum: Barbituric acid; LC-ESI-ITFT; MS2; CE: 40;  [M+H]+
Name: Barbituric acid
Class: Organoheterocyclic compounds; Diazines; Pyrimidines and pyrimidine derivatives
Formula: C4H4N2O3
Exact mass: 128.02219
SMILES: OC1=NC(=O)N=C(O)C1
InChI: InChI=1S/C4H4N2O3/c7-2-1-3(8)6-4(9)5-2/h1H2,(H2,5,6,7,8,9)
Instrument: Thermo Scientific Q-Exactive Focus
Instrument type: LC-ESI-ITFT
Ms type: MS2
Ion mode: POSITIVE
Ionization: ESI
Collision energy: 40
Column name: Acquity CSHC18
Retention time: 1.463 min
Base peak: 129.02946
Precursor m/z: 129.02946
Precursor type: [M+H]+
m/z	relative intensity
53.9397	37
68.0137	14
68.9976	999
69.9929	46
70.9423	76
88.9528	25
106.9632	21
109.9408	12
133.8732	13
149.4521	12
