Mass spectrum: L-Gulonolactone; LC-ESI-ITFT; MS2; CE: 20;  [M-H]-
Name: L-Gulonolactone
Class: Organoheterocyclic compounds; Lactones; Gamma butyrolactones
Formula: C6H10O6
Exact mass: 178.04774
SMILES: [H][C@@]1(OC(=O)[C@@H](O)[C@H]1O)[C@@H](O)CO
InChI: InChI=1S/C6H10O6/c7-1-2(8)5-3(9)4(10)6(11)12-5/h2-5,7-10H,1H2/t2-,3+,4-,5+/m0/s1
Instrument: Thermo Scientific Q-Exactive Focus
Instrument type: LC-ESI-ITFT
Ms type: MS2
Ion mode: NEGATIVE
Ionization: ESI
Collision energy: 20
Column name: Acquity CSHC18
Retention time: 0.642 min
Base peak: 177.04047
Precursor m/z: 177.04047
Precursor type: [M-H]-
m/z	relative intensity
57.0334	131
58.0048	55
59.0127	999
71.0126	352
72.9919	82
75.0075	104
85.0283	85
89.0232	147
99.0076	46
111.0076	49
