Mass spectrum: Rutin; LC-ESI-QTOF; MS2; CE: 38.27;  [M-H]-
Name: Rutin
Class: NA
Formula: C27H30O16
Exact mass: 610.1534
SMILES: CC1C(C(C(C(O1)OCC2C(C(C(C(O2)OC3=C(OC4=CC(=CC(=C4C3=O)O)O)C5=CC(=C(C=C5)O)O)O)O)O)O)O)O
InChI: InChI=1S/C27H30O16/c1-8-17(32)20(35)22(37)26(40-8)39-7-15-18(33)21(36)23(38)27(42-15)43-25-19(34)16-13(31)5-10(28)6-14(16)41-24(25)9-2-3-11(29)12(30)4-9/h2-6,8,15,17-18,20-23,26-33,35-38H,7H2,1H3
Instrument: Bruker MicrOTOF-Q
Instrument type: LC-ESI-QTOF
Ms type: MS2
Ion mode: NEGATIVE
Ionization: ESI
Collision energy: 38.27
Column name: Acquity CSHC18
Retention time: NA
Base peak: 609.1439
Precursor m/z: 609.1439
Precursor type: [M-H]-
m/z	relative intensity
101.0709	8
103.5939	10
107.0119	12
108.018	8
109.0248	8
120.9612	17
125.0257	8
135.0088	14
151.0046	274
152.0065	25
162.9727	32
164.0102	13
165.0143	9
171.005	9
175.0476	15
178.9476	111
180.0049	15
183.0428	10
185.0615	12
187.0416	18
189.0714	11
190.0275	12
190.5296	9
191.0017	29
192.0078	16
193.0194	26
198.031	13
199.0393	29
200.0489	11
201.0492	15
202.028	9
202.5824	9
203.037	16
204.0395	10
209.5479	8
211.0417	91
212.0444	20
213.051	16
214.0263	19
215.0355	46
216.0437	47
216.8714	11
219.3245	9
220.6022	9
221.7986	8
226.0285	97
226.4857	8
227.036	221
228.0407	52
229.0499	110
230.0434	23
231.034	11
232.0454	11
233.0456	15
234.2736	9
239.0355	49
240.0407	23
240.9585	11
242.0697	18
242.9345	398
243.5958	8
244.0359	180
245.0455	174
246.0465	23
247.0463	14
253.0187	11
254.1523	126
255.4122	426
256.7208	39
258.0476	10
259.0284	9
265.02	13
266.0241	34
268.5027	10
269.8765	19
271.79	485
274.0427	50
274.5234	8
275.2669	10
282.0169	10
283.0261	269
284.028	45
285.0386	17
286.0528	8
296.0382	8
297.0407	20
300.333	999
303.0411	137
304.042	15
313.0382	25
343.0472	59
344.0539	10
609.1517	14
