Mass spectrum: Aloin; LC-ESI-QTOF; MS2; CE: 35;  [M-H]-
Name: Aloin
Class: NA
Formula: C21H22O9
Exact mass: 418.1264
SMILES: C1=CC2=C(C(=C1)O)C(=O)C3=C(C2C4C(C(C(C(O4)CO)O)O)O)C=C(C=C3O)CO
InChI: InChI=1S/C21H22O9/c22-6-8-4-10-14(21-20(29)19(28)17(26)13(7-23)30-21)9-2-1-3-11(24)15(9)18(27)16(10)12(25)5-8/h1-5,13-14,17,19-26,28-29H,6-7H2
Instrument: Bruker MicrOTOF-Q
Instrument type: LC-ESI-QTOF
Ms type: MS2
Ion mode: NEGATIVE
Ionization: ESI
Collision energy: 35
Column name: Acquity CSHC18
Retention time: NA
Base peak: 417.1173
Precursor m/z: 417.1173
Precursor type: [M-H]-
m/z	relative intensity
239.074	557
240.0748	307
249.0531	275
251.0733	629
252.0786	900
268.07	892
269.076	684
297.0755	999
