Mass spectrum: Aminoadipic acid; ESI-TOF; MS2; CE: 6.0000000;  [M+H]+
Name: Aminoadipic acid
Class: NA
Formula: C6H11NO4
Exact mass: 161.06881
SMILES: NC(CCCC(O)=O)C(O)=O
InChI: InChI=1S/C6H11NO4/c7-4(6(10)11)2-1-3-5(8)9/h4H,1-3,7H2,(H,8,9)(H,10,11)
Instrument: waters xevo g2 TOF
Instrument type: ESI-TOF
Ms type: MS2
Ion mode: POSITIVE
Ionization: ESI
Collision energy: 6.0000000
Column name: Acquity CSHC18
Retention time: 1.192 min
Base peak: 162.07681
Precursor m/z: 162.07681
Precursor type: [M+H]+
m/z	relative intensity
98.0605	45
116.0716	1
124.9927	5
130.0082	3
144.066	999
145.0689	94
150.0738	4
166.0476	70
167.0515	5
182.0134	6
188.0293	2
194.0142	2
198.993	16
214.9878	11
217.9951	1
223.0392	3
228.0184	3
229.0048	3
240.0184	3
241.9972	1
242.9834	9
243.9902	23
245.9916	4
260.994	1
275.0088	1
293.0487	2
296.0448	19
297.0491	2
309.1065	2
325.0708	10
341.0424	5
342.048	3
343.0442	5
345.0395	2
439.103	7
468.1287	16
469.1312	1
483.0943	4
484.102	7
