Mass spectrum: 2-alpha-Hydroxy-sola-dulcidin; APCI-ITFT; MS2; CE: CID 35;  [M-H]-
Name: 2-alpha-Hydroxy-sola-dulcidin
Class: NA
Formula: C27H45NO3
Exact mass: 431.33994
SMILES: C[C@@]12[C@](CC[C@]3([H])[C@@]([H])2CC[C@@]4(C)[C@]3([H])C[C@@]5([H])[C@]4([H])[C@H](C)[C@]6(NC[C@H](C)CC6)O5)([H])C[C@@H](O)[C@H](O)C1
InChI: InChI=1S/C27H45NO3/c1-15-7-10-27(28-14-15)16(2)24-23(31-27)12-20-18-6-5-17-11-21(29)22(30)13-26(17,4)19(18)8-9-25(20,24)3/h15-24,28-30H,5-14H2,1-4H3/t15-,16+,17+,18-,19+,20-,21-,22-,23+,24+,25+,26+,27-/m1/s1
Instrument: Orbitrap Elite
Instrument type: APCI-ITFT
Ms type: MS2
Ion mode: NEGATIVE
Ionization: APCI
Collision energy: CID 35
Column name: Acquity CSHC18
Retention time: 0.120 min
Base peak: 430.33300
Precursor m/z: 430.33300
Precursor type: [M-H]-
Precursor intensity: 9470562
m/z	relative intensity
255.1754	18
256.179	2
264.1219	1
267.174	2
269.1916	2
285.1847	1
287.2018	3
299.199	2
301.2148	1
311.2393	1
313.2181	5
315.2326	2
331.2247	3
333.2451	2
340.2655	2
341.11	5
351.2645	1
354.2801	2
359.2551	2
364.2643	4
364.3	7
366.277	1
367.2977	8
368.3003	2
369.2818	2
370.3107	15
372.3296	7
376.3008	5
378.2808	5
380.2983	348
381.2967	111
382.3112	76
383.2924	29
384.2922	6
385.3091	841
386.3138	254
387.329	121
392.2935	60
393.2994	20
394.3098	41
396.2921	30
397.2931	8
398.3044	999
399.3126	297
400.3182	473
401.3272	91
402.3341	23
408.287	12
409.2988	4
410.3063	439
411.3131	84
412.3196	523
413.3091	3
414.2969	4
426.3027	13
428.3206	12
429.297	5
430.3355	27
