Mass spectrum: CREATINE; LC-ESI-QTOF; MS2; CE: 10;  [M+H]+
Name: CREATINE
Class: NA
Formula: C4H9N3O2
Exact mass: 131.0695
SMILES: CN(CC(O)=O)C(N)=N
InChI: InChI=1S/C4H9N3O2/c1-7(4(5)6)2-3(8)9/h2H2,1H3,(H3,5,6)(H,8,9)
Instrument: Agilent 6530Â Q-TOF LC/MS
Instrument type: LC-ESI-QTOF
Ms type: MS2
Ion mode: POSITIVE
Ionization: ESI
Collision energy: 10
Column name: NA
Retention time: 0.200 min
Base peak: 132.07741
Precursor m/z: 132.07741
Precursor type: [M+H]+
Precursor intensity: 148.5
m/z	relative intensity
43.0285	28
44.0498	32
62.9289	41
87.0579	71
90.053	72
90.9009	103
103.9552	129
114.0636	608
115.0458	716
132.0742	999
