Mass spectrum: 4-Aminohippuric acid; ESI-TOF; MS2; CE: 0.6458333;  [M+H]+
Name: 4-Aminohippuric acid
Class: NA
Formula: C9H10N2O3
Exact mass: 194.06914
SMILES: NC1=CC=C(C=C1)C(=O)NCC(O)=O
InChI: InChI=1S/C9H10N2O3/c10-7-3-1-6(2-4-7)9(14)11-5-8(12)13/h1-4H,5,10H2,(H,11,14)(H,12,13)
Instrument: waters xevo g2 TOF
Instrument type: ESI-TOF
Ms type: MS2
Ion mode: POSITIVE
Ionization: ESI
Collision energy: 0.6458333
Column name: Acquity CSHC18
Retention time: 0.955 min
Base peak: 195.07714
Precursor m/z: 195.07714
Precursor type: [M+H]+
m/z	relative intensity
65.0397	58
92.0501	736
108.0688	4
120.045	999
121.0482	37
148.992	2
166.0654	17
167.0725	10
181.0763	42
182.0812	19
183.0919	26
184.0961	3
205.0056	2
209.0714	35
211.0868	38
235.0501	12
253.0623	4
283.0413	5
285.11	2
297.0567	13
298.058	4
354.0762	2
411.1241	1
427.0929	5
428.0933	2
577.1669	8
691.0612	1
