Mass spectrum: Benzamide; LC-ESI-ITFT; MS2; CE: 10;  [M+H]+
Name: Benzamide
Class: Benzenoids; Benzene and substituted derivatives; Benzoic acids and derivatives
Formula: C7H7NO
Exact mass: 121.05276
SMILES: NC(=O)C1=CC=CC=C1
InChI: InChI=1S/C7H7NO/c8-7(9)6-4-2-1-3-5-6/h1-5H,(H2,8,9)
Instrument: Thermo Scientific Q-Exactive Focus
Instrument type: LC-ESI-ITFT
Ms type: MS2
Ion mode: POSITIVE
Ionization: ESI
Collision energy: 10
Column name: Acquity CSHC18
Retention time: 0.105 min
Base peak: 122.06004
Precursor m/z: 122.06004
Precursor type: [M+H]+
m/z	relative intensity
56.9653	95
76.5155	28
79.0182	177
79.0546	641
88.0234	262
95.0494	49
97.0286	32
105.0337	999
122.0601	977
122.0964	28
