Mass spectrum: Formononetin; LC-ESI-ITFT; MS2; CE: 100;  [M-H]-
Name: Formononetin
Class: Phenylpropanoids and polyketides; Isoflavonoids; O-methylated isoflavonoids
Formula: C16H12O4
Exact mass: 268.07356
SMILES: COC1=CC=C(C=C1)C1=COC2=C(C=CC(O)=C2)C1=O
InChI: InChI=1S/C16H12O4/c1-19-12-5-2-10(3-6-12)14-9-20-15-8-11(17)4-7-13(15)16(14)18/h2-9,17H,1H3
Instrument: Thermo Scientific Q-Exactive Focus
Instrument type: LC-ESI-ITFT
Ms type: MS2
Ion mode: NEGATIVE
Ionization: ESI
Collision energy: 100
Column name: Acquity CSHC18
Retention time: 2.287 min
Base peak: 267.06628
Precursor m/z: 267.06628
Precursor type: [M-H]-
m/z	relative intensity
63.0228	37
63.6074	38
65.002	999
91.0177	96
116.7408	37
117.0334	46
167.0491	40
184.6185	36
210.6625	35
268.2609	36
