Mass spectrum: 5-(methylthio)pentyl-glucosinolate; LC-ESI-QTOF; MS2; CE: 50eV;  [M-H]-
Name: 5-(methylthio)pentyl-glucosinolate
Class: aliphatic glucosinolate
Formula: C13H25NO9S3
Exact mass: 435.0691
SMILES: O[C@H]1[C@@H](O)[C@@H](O)[C@H](S/C(CCCCCSC)=N/OS(=O)(O)=O)O[C@@H]1CO
InChI: InChI=1S/C13H25NO9S3/c1-24-6-4-2-3-5-9(14-23-26(19,20)21)25-13-12(18)11(17)10(16)8(7-15)22-13/h8,10-13,15-18H,2-7H2,1H3,(H,19,20,21)/b14-9+/t8-,10-,11-,12-,13+/m1/s1
Instrument: TIMS-TOF Pro, Bruker Daltonik; Elute UHPLC System, Bruker Daltonik
Instrument type: LC-ESI-QTOF
Ms type: MS2
Ion mode: NEGATIVE
Ionization: ESI
Collision energy: 50eV
Column name: Acquity CSHC18
Retention time: 7.096 min
Base peak: 434.0531
Precursor m/z: 434.0531
Precursor type: [M-H]-
Precursor intensity: 13958.33
m/z	relative intensity
46.995	16
59.0103	5
71.0127	29
73.9809	6
74.9892	245
80.9612	5
95.9506	432
96.9572	533
97.9455	15
98.953	18
225.5732	8
433.9053	5
434.0531	999
