Mass spectrum: Itaconic acid; LC-ESI-ITFT; MS2; CE: 60;  [M-H]-
Name: Itaconic acid
Class: Lipids and lipid-like molecules; Fatty Acyls; Fatty acids and conjugates
Formula: C5H6O4
Exact mass: 130.02661
SMILES: OC(=O)CC(=C)C(O)=O
InChI: InChI=1S/C5H6O4/c1-3(5(8)9)2-4(6)7/h1-2H2,(H,6,7)(H,8,9)
Instrument: Thermo Scientific Q-Exactive Focus
Instrument type: LC-ESI-ITFT
Ms type: MS2
Ion mode: NEGATIVE
Ionization: ESI
Collision energy: 60
Column name: Acquity CSHC18
Retention time: 1.772 min
Base peak: 129.01933
Precursor m/z: 129.01933
Precursor type: [M-H]-
m/z	relative intensity
59.3656	897
70.941	841
74.2748	810
88.0348	888
95.0461	802
98.9256	843
101.603	841
120.1213	999
131.9157	781
135.5858	930
