Mass spectrum: DEOXYURIDINE; LC-ESI-QTOF; MS2; CE: 20;  [M-H]-
Name: DEOXYURIDINE
Class: NA
Formula: C9H12N2O5
Exact mass: 228.07462
SMILES: OC[C@H]1O[C@H](C[C@@H]1O)N1C=CC(=O)NC1=O
InChI: InChI=1S/C9H12N2O5/c12-4-6-5(13)3-8(16-6)11-2-1-7(14)10-9(11)15/h1-2,5-6,8,12-13H,3-4H2,(H,10,14,15)/t5-,6+,8+/m0/s1
Instrument: Agilent 6530Â Q-TOF LC/MS
Instrument type: LC-ESI-QTOF
Ms type: MS2
Ion mode: NEGATIVE
Ionization: ESI
Collision energy: 20
Column name: NA
Retention time: 0.200 min
Base peak: 227.06249
Precursor m/z: 227.06249
Precursor type: [M-H]-
Precursor intensity: 185
m/z	relative intensity
42.0128	151
66.0393	240
94.0357	680
111.0338	999
