Mass spectrum: (22S,25R)-22,26-Imino-5alpha-cholestan-3beta,16beta-diol; APCI-ITFT; MS2; CE: 35 CID;  [M+H]+
Name: (22S,25R)-22,26-Imino-5alpha-cholestan-3beta,16beta-diol
Class: NA
Formula: C27H47NO2
Exact mass: 417.36068
SMILES: C[C@@H](CN1)CC[C@H]1[C@@H](C)[C@H]2[C@@H](O)C[C@@]3([H])[C@]4([H])CC[C@@]5([H])C[C@@H](O)CC[C@]5(C)[C@@]4([H])CC[C@]23C
InChI: InChI=1S/C27H47NO2/c1-16-5-8-23(28-15-16)17(2)25-24(30)14-22-20-7-6-18-13-19(29)9-11-26(18,3)21(20)10-12-27(22,25)4/h16-25,28-30H,5-15H2,1-4H3/t16-,17-,18+,19+,20-,21+,22+,23+,24+,25+,26+,27+/m1/s1
Instrument: Orbitrap Elite
Instrument type: APCI-ITFT
Ms type: MS2
Ion mode: POSITIVE
Ionization: APCI
Collision energy: 35 CID
Column name: Acquity CSHC18
Retention time: 0.199 min
Base peak: 418.36640
Precursor m/z: 418.36640
Precursor type: [M+H]+
Precursor intensity: 1526477000
m/z	relative intensity
126.1281	17
127.1116	1
127.1312	2
133.1011	2
135.1176	2
145.1006	4
147.1168	6
148.1206	1
149.1326	2
159.1159	7
160.12	1
161.1317	22
162.1355	5
163.1128	1
173.1332	5
175.1479	4
185.134	1
187.1476	2
199.1488	1
201.164	2
213.1625	4
215.1782	5
227.1816	2
241.1949	7
255.2091	48
256.2129	26
257.227	18
259.2065	3
273.2218	120
274.2253	36
275.2301	3
382.3443	10
383.3323	4
398.3425	3
399.3442	228
400.3563	999
401.3619	19
