Mass spectrum: Glucoraphanin; LC-ESI-QTOF; MS2; CE: 28.20;  [M+K]+
Name: Glucoraphanin
Class: NA
Formula: C12H23NO10S3
Exact mass: 437.0484
SMILES: CS(=O)CCCCC(=NOS(=O)(=O)O)SC1C(C(C(C(O1)CO)O)O)O
InChI: InChI=1S/C12H23NO10S3/c1-25(18)5-3-2-4-8(13-23-26(19,20)21)24-12-11(17)10(16)9(15)7(6-14)22-12/h7,9-12,14-17H,2-6H2,1H3,(H,19,20,21)
Instrument: Bruker MicrOTOF-Q
Instrument type: LC-ESI-QTOF
Ms type: MS2
Ion mode: POSITIVE
Ionization: ESI
Collision energy: 28.20
Column name: Acquity CSHC18
Retention time: NA
Base peak: 476.0116
Precursor m/z: 476.0116
Precursor type: [M+K]+
m/z	relative intensity
176.0034	10
178.0153	13
184.0182	53
186.0192	14
200.0148	109
201.0167	42
202.0199	108
218.0239	23
234.0025	999
235.0032	80
235.9994	149
242.0191	10
244.0328	24
260.0271	145
261.0336	21
278.0377	96
316.085	10
380.0813	25
396.0561	404
397.0629	58
397.9433	8
398.0512	48
