Mass spectrum: CYTIDINE MONOPHOSPHATE; LC-ESI-QFT; MS2; CE: 30eV;  [M-H]-
Name: CYTIDINE MONOPHOSPHATE
Class: NA
Formula: C9H14N3O8P
Exact mass: 323.05185
SMILES: NC1=NC(=O)N(C=C1)[C@@H]1O[C@H](COP(O)(O)=O)[C@@H](O)[C@H]1O
InChI: InChI=1S/C9H14N3O8P/c10-5-1-2-12(9(15)11-5)8-7(14)6(13)4(20-8)3-19-21(16,17)18/h1-2,4,6-8,13-14H,3H2,(H2,10,11,15)(H2,16,17,18)/t4-,6-,7-,8-/m1/s1
Instrument: Q-Exactive Orbitrap, Thermo Scientfic; Ultimate 3000 HPLC, Thermo Scientfic
Instrument type: LC-ESI-QFT
Ms type: MS2
Ion mode: NEGATIVE
Ionization: ESI
Collision energy: 30eV
Column name: Acquity CSHC18
Retention time: 0.592 min
Base peak: 322.0446
Precursor m/z: 322.0446
Precursor type: [M-H]-
Precursor intensity: 132
m/z	relative intensity
52.8594	1
54.3247	1
55.9251	1
62.9623	2
67.0284	9
71.0651	1
79.4052	1
84.2617	1
84.7968	1
96.353	1
96.9678	999
101.0227	13
106.9421	1
107.0233	6
109.0391	7
110.0342	58
113.0226	8
116.9266	2
117.9342	5
120.2466	1
129.6705	1
136.0387	13
138.9785	142
144.0232	1
145.0391	1
148.4626	1
150.9786	74
154.0191	1
159.9196	2
160.9164	48
160.9227	2
162.8376	1
162.9789	1
163.0501	11
168.9896	6
179.0097	1
181.0604	25
192.9894	37
195.9056	1
202.3781	1
211.0001	86
212.0037	2
218.9651	1
227.1337	1
232.9012	1
279.0382	29
315.3931	1
315.7485	1
322.0441	212
323.0477	12
327.8045	1
