Mass spectrum: SEROTONIN; LC-ESI-QFT; MS2; CE: 30eV;  [M+H]+
Name: SEROTONIN
Class: NA
Formula: C10H12N2O
Exact mass: 176.09496
SMILES: NCCC1=CNC2=CC=C(O)C=C12
InChI: InChI=1S/C10H12N2O/c11-4-3-7-6-12-10-2-1-8(13)5-9(7)10/h1-2,5-6,12-13H,3-4,11H2
Instrument: Q-Exactive Orbitrap, Thermo Scientfic; Ultimate 3000 HPLC, Thermo Scientfic
Instrument type: LC-ESI-QFT
Ms type: MS2
Ion mode: POSITIVE
Ionization: ESI
Collision energy: 30eV
Column name: Acquity CSHC18
Retention time: 1.140 min
Base peak: 177.1022
Precursor m/z: 177.1022
Precursor type: [M+H]+
Precursor intensity: 193
m/z	relative intensity
51.3448	4
51.698	4
55.9352	109
58.1866	6
72.8443	5
73.9456	28
78.6751	5
81.7429	7
83.2771	5
89.039	6
90.359	6
90.9483	12
91.9559	7
96.9615	38
98.0987	6
105.0702	8
107.9509	50
113.9642	33
114.9719	999
115.0546	72
117.0577	32
117.9352	12
118.9424	7
119.0495	8
124.8723	6
125.6003	6
125.9613	70
128.951	101
130.9796	9
131.9747	9
132.0811	132
132.9948	25
133.0525	7
133.0649	8
135.9403	9
135.9455	248
136.9457	7
142.0656	21
143.0733	9
144.9311	6
145.051	6
146.9616	46
148.0764	7
148.9771	10
148.9898	26
149.0234	14
153.9561	192
158.9616	119
159.0681	9
159.9695	10
161.0733	34
161.0792	857
167.2931	6
176.972	61
177.1028	26
177.9567	15
178.1228	13
