Mass spectrum: Uridine; LC-ESI-ITFT; MS2; CE: 60;  [M-H]-
Name: Uridine
Class: Nucleosides, nucleotides, and analogues; Pyrimidine nucleosides
Formula: C9H12N2O6
Exact mass: 244.06954
SMILES: OC[C@H]1O[C@H]([C@H](O)[C@@H]1O)N1C=CC(=O)NC1=O
InChI: InChI=1S/C9H12N2O6/c12-3-4-6(14)7(15)8(17-4)11-2-1-5(13)10-9(11)16/h1-2,4,6-8,12,14-15H,3H2,(H,10,13,16)/t4-,6-,7-,8-/m1/s1
Instrument: Thermo Scientific Q-Exactive Focus
Instrument type: LC-ESI-ITFT
Ms type: MS2
Ion mode: NEGATIVE
Ionization: ESI
Collision energy: 60
Column name: Acquity CSHC18
Retention time: 2.031 min
Base peak: 243.06226
Precursor m/z: 243.06226
Precursor type: [M-H]-
m/z	relative intensity
50.0025	176
65.9973	216
66.0337	362
68.013	999
81.0208	238
82.0286	592
95.7639	118
96.4434	114
135.7385	115
220.1363	119
