Mass spectrum: 8-iso Prostaglandin E2 isopropyl ester; ESI-TOF; MS2; CE: 0.6458333;  [M+H]+
Name: 8-iso Prostaglandin E2 isopropyl ester
Class: NA
Formula: C23H38O5
Exact mass: 394.27192
SMILES: O=C1[C@@H](C/C=C\CCCC(OC(C)C)=O)[C@@H](/C=C/[C@@H](O)CCCCC)[C@H](O)C1
InChI: InChI=1S/C23H38O5/c1-4-5-8-11-18(24)14-15-20-19(21(25)16-22(20)26)12-9-6-7-10-13-23(27)28-17(2)3/h6,9,14-15,17-20,22,24,26H,4-5,7-8,10-13,16H2,1-3H3/b9-6-,15-14+/t18-,19-,20+,22+/m0/s1
Instrument: waters xevo g2 TOF
Instrument type: ESI-TOF
Ms type: MS2
Ion mode: POSITIVE
Ionization: ESI
Collision energy: 0.6458333
Column name: Acquity CSHC18
Retention time: 4.399 min
Base peak: 395.27992
Precursor m/z: 395.27992
Precursor type: [M+H]+
m/z	relative intensity
67.054	53
79.0551	118
81.0706	175
91.0549	261
93.0715	256
95.086	167
97.0673	35
105.0709	293
109.1028	97
117.0707	168
119.0871	238
121.1024	225
129.0705	373
131.0866	526
132.0904	37
133.1013	329
135.1172	111
141.0715	90
143.0875	231
145.1024	378
147.0808	140
149.0973	125
151.1109	29
155.0857	193
157.1024	318
159.1173	247
161.1321	91
163.1481	86
169.1024	338
171.1173	276
173.0961	204
175.1119	96
181.1001	34
183.117	246
185.1333	128
187.0997	147
189.127	69
191.1072	24
197.0966	120
201.1277	254
207.1117	36
213.1268	26
215.1432	165
217.1586	65
227.1179	166
229.122	44
230.1959	33
243.2096	26
245.1902	327
246.1956	55
247.1212	90
253.1963	159
254.1944	31
255.1744	242
257.1883	166
259.0623	25
263.0677	56
265.2155	47
271.2067	409
273.1847	203
281.1906	394
289.2154	117
291.1947	76
299.2009	862
300.2038	167
303.1638	277
304.1657	40
317.2113	486
318.2147	88
335.2223	50
341.2394	35
348.1001	32
354.196	237
355.1581	281
357.1968	92
359.2581	62
371.1303	463
373.1669	964
374.1718	149
375.2158	999
375.7202	77
376.2157	101
385.1442	21
388.1325	309
389.1387	358
390.1413	63
391.1769	412
