Mass spectrum: acyl sugar_S4:22 (2,5,5,10); LC-ESI-ITFT; MS2; CE: 35 NCE;  [M+FA-H]-
Name: acyl sugar_S4:22 (2,5,5,10)
Class: acyl sugar
Formula: C34H58O15
Exact mass: 706.3776
SMILES: CCC(C)C(=O)OC1C(C(OC(C1OC(=O)C)OC2(C(C(C(O2)CO)O)OC(=O)CCCCCCC(C)C)CO)CO)OC(=O)CC(C)C
InChI: InChI=1S/C34H58O15/c1-8-21(6)32(42)47-29-28(45-26(40)15-20(4)5)24(17-36)44-33(30(29)43-22(7)38)49-34(18-37)31(27(41)23(16-35)48-34)46-25(39)14-12-10-9-11-13-19(2)3/h19-21,23-24,27-31,33,35-37,41H,8-18H2,1-7H3
Instrument: LTQ Orbitrap XL, Thermo Scientfic; Aquity (U)HPLC, Waters
Instrument type: LC-ESI-ITFT
Ms type: MS2
Ion mode: NEGATIVE
Ionization: ESI
Collision energy: 35 NCE
Column name: Acquity CSHC18
Retention time: 38.863 min
Base peak: 751.3782
Precursor m/z: 751.3782
Precursor type: [M+FA-H]-
Precursor intensity: 143199.8
m/z	relative intensity
229.5222	41
417.7966	47
467.1795	171
525.9102	609
579.3015	999
