Mass spectrum: Papaverine; LC-ESI-QTOF; MS2; CE: 18.01;  [M+H]+
Name: Papaverine
Class: NA
Formula: C20H21NO4
Exact mass: 339.1471
SMILES: COC1=C(C=C(C=C1)CC2=NC=CC3=CC(=C(C=C32)OC)OC)OC
InChI: InChI=1S/C20H21NO4/c1-22-17-6-5-13(10-18(17)23-2)9-16-15-12-20(25-4)19(24-3)11-14(15)7-8-21-16/h5-8,10-12H,9H2,1-4H3
Instrument: Bruker MicrOTOF-Q
Instrument type: LC-ESI-QTOF
Ms type: MS2
Ion mode: POSITIVE
Ionization: ESI
Collision energy: 18.01
Column name: Acquity CSHC18
Retention time: NA
Base peak: 340.1543
Precursor m/z: 340.1543
Precursor type: [M+H]+
m/z	relative intensity
202.0861	40
203.0897	48
296.127	89
324.1222	89
325.1293	243
326.1323	266
340.1629	593
341.1586	832
342.1591	999
