Mass spectrum: C20:4 anandamide (AEA); ESI-TOF; MS2; CE: 0.6458333;  [M+H]+
Name: C20:4 anandamide (AEA)
Class: NA
Formula: C22H37NO2
Exact mass: 347.28243
SMILES: [H]OC([H])([H])C([H])([H])N([H])C(=O)C([H])([H])C([H])([H])C([H])([H])C([H])=C([H])C([H])([H])C([H])=C([H])C([H])([H])C([H])=C([H])C([H])([H])C([H])=C([H])C([H])([H])C([H])([H])C([H])([H])C([H])([H])C([H])([H])[H]
InChI: InChI=1S/C22H37NO2/c1-2-3-4-5-6-7-8-9-10-11-12-13-14-15-16-17-18-19-22(25)23-20-21-24/h6-7,9-10,12-13,15-16,24H,2-5,8,11,14,17-21H2,1H3,(H,23,25)
Instrument: waters xevo g2 TOF
Instrument type: ESI-TOF
Ms type: MS2
Ion mode: POSITIVE
Ionization: ESI
Collision energy: 0.6458333
Column name: Acquity CSHC18
Retention time: 7.141 min
Base peak: 348.29043
Precursor m/z: 348.29043
Precursor type: [M+H]+
m/z	relative intensity
62.0615	351
67.0556	238
69.0713	149
77.0395	45
79.0554	460
81.0706	571
83.0863	114
85.0669	48
91.0548	884
92.0594	64
93.0707	808
94.0749	62
95.0868	643
96.0892	51
97.0654	60
98.0618	84
105.0707	934
106.0736	88
107.0861	543
108.0889	39
109.102	279
117.0706	310
119.0864	996
120.0894	122
121.1019	652
122.1046	60
123.0987	92
124.0069	53
128.0692	70
129.0704	317
130.0859	177
131.0867	584
132.0897	65
133.1022	999
134.1045	106
135.1177	339
137.1156	45
142.0818	57
143.0865	353
145.1026	455
147.1179	573
148.1195	68
149.0631	112
157.1023	395
159.1174	244
161.1326	337
162.1359	49
162.6038	149
163.1106	139
170.1135	19
171.1175	529
172.1271	85
173.133	138
175.1489	285
176.1361	35
177.1643	126
184.1321	44
185.1332	418
186.1425	49
187.1492	105
189.1647	238
190.1674	41
191.1799	71
192.1843	10
193.6229	722
194.1248	190
196.1335	23
198.1476	44
199.1499	196
200.1527	39
201.1634	75
203.1803	555
204.1834	79
205.1948	29
212.1645	22
213.1656	107
227.1803	57
241.196	35
243.2123	114
245.2273	369
246.2301	76
249.1155	39
259.2432	147
260.246	28
268.2297	8
269.2272	611
270.2301	133
282.2443	7
287.2379	667
288.241	154
325.1848	300
326.1873	52
330.2798	500
331.2763	153
343.1954	182
348.2904	538
349.2931	151
