Mass spectrum: Treprostinil; ESI-TOF; MS2; CE: 6.0000000;  [M+H]+
Name: Treprostinil
Class: NA
Formula: C23H34O5
Exact mass: 390.24062
SMILES: [H][C@]12C[C@@H](O)[C@H](CC[C@@H](O)CCCCC)[C@@]1([H])CC1=C(C2)C(OCC(O)=O)=CC=C1
InChI: InChI=1S/C23H34O5/c1-2-3-4-7-17(24)9-10-18-19-11-15-6-5-8-22(28-14-23(26)27)20(15)12-16(19)13-21(18)25/h5-6,8,16-19,21,24-25H,2-4,7,9-14H2,1H3,(H,26,27)/t16-,17-,18+,19-,21+/m0/s1
Instrument: waters xevo g2 TOF
Instrument type: ESI-TOF
Ms type: MS2
Ion mode: POSITIVE
Ionization: ESI
Collision energy: 6.0000000
Column name: Acquity CSHC18
Retention time: 4.378 min
Base peak: 391.24862
Precursor m/z: 391.24862
Precursor type: [M+H]+
m/z	relative intensity
109.1024	3
151.149	13
185.0591	2
191.0715	11
197.0944	21
203.0713	46
205.0851	4
206.0961	44
206.5978	19
215.1008	20
217.0871	21
231.1022	8
243.1025	170
244.106	23
257.1179	56
258.1211	3
259.1322	7
271.1329	22
272.1351	2
273.1495	18
274.151	1
285.1499	8
299.144	1
309.2206	11
355.1751	999
356.2312	540
357.233	61
358.2375	4
369.2661	2
373.2383	838
374.241	219
375.243	27
391.2491	135
392.2528	28
