Mass spectrum: 4-IMIDAZOLEACETATE; LC-ESI-QTOF; MS2; CE: 20;  [M-H]-
Name: 4-IMIDAZOLEACETATE
Class: NA
Formula: C5H6N2O2
Exact mass: 126.04293
SMILES: OC(=O)CC1=CN=CN1
InChI: InChI=1S/C5H6N2O2/c8-5(9)1-4-2-6-3-7-4/h2-3H,1H2,(H,6,7)(H,8,9)
Instrument: Agilent 6530Â Q-TOF LC/MS
Instrument type: LC-ESI-QTOF
Ms type: MS2
Ion mode: NEGATIVE
Ionization: ESI
Collision energy: 20
Column name: NA
Retention time: 0.200 min
Base peak: 125.03329
Precursor m/z: 125.03329
Precursor type: [M-H]-
Precursor intensity: 188
m/z	relative intensity
40.0281	108
52.0175	123
61.9875	556
81.0625	999
