Mass spectrum: Citric acid; LC-ESI-QTOF; MS2; CE: 15 / 50;  [M-H]-
Name: Citric acid
Class: NA
Formula: C6H8O7
Exact mass: 192.0270
SMILES: C(C(=O)O)C(CC(=O)O)(C(=O)O)O
InChI: InChI=1S/C6H8O7/c7-3(8)1-6(13,5(11)12)2-4(9)10/h13H,1-2H2,(H,7,8)(H,9,10)(H,11,12)
Instrument: impact II
Instrument type: LC-ESI-QTOF
Ms type: MS2
Ion mode: NEGATIVE
Ionization: ESI
Collision energy: 15 / 50
Column name: Acquity CSHC18
Retention time: 0.681 min
Base peak: 191.0199
Precursor m/z: 191.0199
Precursor type: [M-H]-
m/z	relative intensity
85.0294	359
87.0087	725
111.0088	999
