Mass spectrum: 15(R),19(R)-hydroxy Prostaglandin F1-alpha; ESI-TOF; MS2; CE: 0.6458333;  [M+H]+
Name: 15(R),19(R)-hydroxy Prostaglandin F1-alpha
Class: NA
Formula: C20H36O6
Exact mass: 372.25119
SMILES: O[C@@H]1[C@H](CCCCCCC(O)=O)[C@@H](/C=C/[C@H](O)CCC[C@H](O)C)[C@H](O)C1
InChI: InChI=1S/C20H36O6/c1-14(21)7-6-8-15(22)11-12-17-16(18(23)13-19(17)24)9-4-2-3-5-10-20(25)26/h11-12,14-19,21-24H,2-10,13H2,1H3,(H,25,26)/b12-11+/t14-,15-,16-,17-,18+,19-/m1/s1
Instrument: waters xevo g2 TOF
Instrument type: ESI-TOF
Ms type: MS2
Ion mode: POSITIVE
Ionization: ESI
Collision energy: 0.6458333
Column name: Acquity CSHC18
Retention time: 2.632 min
Base peak: 373.25919
Precursor m/z: 373.25919
Precursor type: [M+H]+
m/z	relative intensity
81.0705	219
85.0669	110
91.0555	296
93.071	339
95.087	373
96.9624	100
105.0708	383
107.086	203
119.0864	294
131.0862	772
133.1023	196
135.1176	57
143.0876	224
145.1034	807
146.1054	88
147.1177	258
155.0854	59
155.9843	51
159.1173	343
161.1307	78
171.1168	315
185.1336	192
187.1445	72
189.1317	86
195.1162	56
199.1497	120
261.1853	200
265.2059	64
275.2008	45
283.2054	294
301.2172	999
319.2291	159
347.1321	148
349.1704	285
357.1727	117
364.1357	168
375.1811	190
