Mass spectrum: L-Glutathione; LC-ESI-QTOF; MS2; CE: 32.26;  [2M-2H+H]+
Name: L-Glutathione
Class: NA
Formula: C10H17N3O6S
Exact mass: 307.0838
SMILES: C(CC(=O)NC(CS)C(=O)NCC(=O)O)C(C(=O)O)N
InChI: InChI=1S/C10H17N3O6S/c11-5(10(18)19)1-2-7(14)13-6(4-20)9(17)12-3-8(15)16/h5-6,20H,1-4,11H2,(H,12,17)(H,13,14)(H,15,16)(H,18,19)
Instrument: Bruker MicrOTOF-Q
Instrument type: LC-ESI-QTOF
Ms type: MS2
Ion mode: POSITIVE
Ionization: ESI
Collision energy: 32.26
Column name: Acquity CSHC18
Retention time: NA
Base peak: 613.1592
Precursor m/z: 613.1592
Precursor type: [2M-2H+H]+
m/z	relative intensity
130.0489	19
131.0434	20
177.0327	21
178.0348	22
179.0463	23
181.0594	23
185.0383	27
199.0711	28
209.0055	28
211.0207	31
231.0435	33
232.0465	43
233.0459	44
235.0212	47
236.0243	50
237.0162	60
243.0433	70
256.0923	82
257.0771	85
265.031	92
288.064	104
289.0572	106
298.0499	108
308.0906	140
355.0739	294
356.0791	324
409.085	999
