Mass spectrum: 2-Nitrophenol; LC-ESI-ITFT; MS2; CE: 20;  [M-H]-
Name: 2-Nitrophenol
Class: NA
Formula: C6H5NO3
Exact mass: 139.02694
SMILES: C1=CC=C(C(=C1)[N+](=O)[O-])O
InChI: InChI=1S/C6H5NO3/c8-6-4-2-1-3-5(6)7(9)10/h1-4,8H
Instrument: Thermo Scientific Q-Exactive Focus
Instrument type: LC-ESI-ITFT
Ms type: MS2
Ion mode: NEGATIVE
Ionization: ESI
Collision energy: 20
Column name: Acquity CSHC18
Retention time: 0.646 min
Base peak: 138.01967
Precursor m/z: 138.01967
Precursor type: [M-H]-
m/z	relative intensity
62.441	6
80.0255	13
91.0177	37
92.5136	7
94.0367	38
108.0205	999
137.9657	13
138.0186	384
138.8591	35
154.0865	6
