Mass spectrum: L-Tyrosine; LC-ESI-ITFT; MS2; CE: 10;  [M-H]-
Name: L-Tyrosine
Class: Organic acids and derivatives; Carboxylic acids and derivatives; Amino acids, peptides, and analogues
Formula: C9H11NO3
Exact mass: 181.07389
SMILES: N[C@@H](CC1=CC=C(O)C=C1)C(O)=O
InChI: InChI=1S/C9H11NO3/c10-8(9(12)13)5-6-1-3-7(11)4-2-6/h1-4,8,11H,5,10H2,(H,12,13)/t8-/m0/s1
Instrument: Thermo Scientific Q-Exactive Focus
Instrument type: LC-ESI-ITFT
Ms type: MS2
Ion mode: NEGATIVE
Ionization: ESI
Collision energy: 10
Column name: Acquity CSHC18
Retention time: NA
Base peak: 180.06662
Precursor m/z: 180.06662
Precursor type: [M-H]-
m/z	relative intensity
92.9188	706
112.9845	201
134.0461	110
136.9087	999
180.0293	53
180.0328	104
180.0658	119
180.8122	75
180.8393	189
180.8779	103
