Mass spectrum: 4,2'-Dihydroxychalcone; LC-ESI-QTOF; MS2; CE: 0.00;  [M+H]+
Name: 4,2'-Dihydroxychalcone
Class: NA
Formula: C15H12O3
Exact mass: 240.0786
SMILES: C1=CC=C(C=C1)C=CC(=O)C2=C(C=C(C=C2)O)O
InChI: InChI=1S/C15H12O3/c16-12-7-8-13(15(18)10-12)14(17)9-6-11-4-2-1-3-5-11/h1-10,16,18H
Instrument: Bruker MicrOTOF-Q
Instrument type: LC-ESI-QTOF
Ms type: MS2
Ion mode: POSITIVE
Ionization: ESI
Collision energy: 0.00
Column name: Acquity CSHC18
Retention time: NA
Base peak: 241.0859
Precursor m/z: 241.0859
Precursor type: [M+H]+
m/z	relative intensity
121.0274	24
122.0306	24
147.0438	26
148.0471	28
167.0862	31
177.0702	40
195.0812	46
196.0842	50
213.0916	151
223.0761	249
224.0795	280
226.0632	343
227.0665	357
241.0868	368
242.09	999
