Mass spectrum: N-ACETYLALANINE; LC-ESI-QFT; MS2; CE: 30eV;  [M+H]+
Name: N-ACETYLALANINE
Class: NA
Formula: C5H9NO3
Exact mass: 131.05824
SMILES: C[C@H](NC(C)=O)C(O)=O
InChI: InChI=1S/C5H9NO3/c1-3(5(8)9)6-4(2)7/h3H,1-2H3,(H,6,7)(H,8,9)/t3-/m0/s1
Instrument: Q-Exactive Orbitrap, Thermo Scientfic; Ultimate 3000 HPLC, Thermo Scientfic
Instrument type: LC-ESI-QFT
Ms type: MS2
Ion mode: POSITIVE
Ionization: ESI
Collision energy: 30eV
Column name: Acquity CSHC18
Retention time: 0.957 min
Base peak: 132.0655
Precursor m/z: 132.0655
Precursor type: [M+H]+
Precursor intensity: 115
m/z	relative intensity
58.066	1
71.9301	8
72.9379	8
86.0609	100
86.0972	1
87.0642	3
88.9112	1
89.08	1
89.9407	6
90.0557	999
90.904	5
90.9411	1
90.9485	8
91.0528	3
91.0591	25
91.0618	1
107.9512	7
108.9518	1
113.9644	5
114.0556	14
125.9616	10
126.3907	1
126.9619	4
130.967	1
131.1265	8
131.9703	1
131.9747	4
132.0661	10
148.9774	6
149.9775	4
