Mass spectrum: Apigenin; LC-ESI-QTOF; MS2; CE: 7-62eV;  [M-H]-
Name: Apigenin
Class: Phenolics
Formula: C15H10O5
Exact mass: 270.0528
SMILES: C1=CC(=CC=C1C2=CC(=O)C3=C(C=C(C=C3O2)O)O)O
InChI: InChI=1S/C15H10O5/c16-9-3-1-8(2-4-9)13-7-12(19)15-11(18)5-10(17)6-14(15)20-13/h1-7,16-18H
Instrument: Bruker MicrOTOF-Q
Instrument type: LC-ESI-QTOF
Ms type: MS2
Ion mode: NEGATIVE
Ionization: ESI
Collision energy: 7-62eV
Column name: Acquity CSHC18
Retention time: 34.945 min
Base peak: 269.0496
Precursor m/z: 269.0496
Precursor type: [M-H]-
Precursor intensity: 72213.19
m/z	relative intensity
107.0119	29
117.0359	31
118.0364	33
121.0252	33
149.0281	47
151.0052	48
160.0534	51
181.0669	53
183.0524	59
201.0579	72
221.1323	142
222.1285	167
225.0591	232
227.0378	523
269.0728	999
