Mass spectrum: XANTHOSINE; LC-ESI-QFT; MS2; CE: 30eV;  [M+H]+
Name: XANTHOSINE
Class: NA
Formula: C10H12N4O6
Exact mass: 284.07568
SMILES: OC[C@H]1O[C@H]([C@H](O)[C@@H]1O)N1C=NC2=C1N=C(O)N=C2O
InChI: InChI=1S/C10H12N4O6/c15-1-3-5(16)6(17)9(20-3)14-2-11-4-7(14)12-10(19)13-8(4)18/h2-3,5-6,9,15-17H,1H2,(H2,12,13,18,19)/t3-,5-,6-,9-/m1/s1
Instrument: Q-Exactive Orbitrap, Thermo Scientfic; Ultimate 3000 HPLC, Thermo Scientfic
Instrument type: LC-ESI-QFT
Ms type: MS2
Ion mode: POSITIVE
Ionization: ESI
Collision energy: 30eV
Column name: Acquity CSHC18
Retention time: 1.581 min
Base peak: 285.0830
Precursor m/z: 285.0830
Precursor type: [M+H]+
Precursor intensity: 113
m/z	relative intensity
52.7466	2
55.0187	35
57.0344	64
57.0357	4
59.05	10
61.0293	10
69.0342	27
70.6755	2
71.0134	9
73.0292	56
75.0369	2
85.0292	61
87.0446	17
89.129	2
90.8467	2
95.1894	2
97.0291	36
103.0396	23
110.0354	3
112.7721	2
115.0396	92
131.7329	2
133.05	103
136.0146	14
137.491	2
153.0412	999
154.0251	11
154.0388	2
154.0446	15
199.4659	2
230.8419	3
260.3859	2
