Mass spectrum: Homovanillic acid; LC-ESI-ITFT; MS2; CE: 10;  [M-H]-
Name: Homovanillic acid
Class: Benzenoids; Phenols; Methoxyphenols
Formula: C9H10O4
Exact mass: 182.05791
SMILES: COC1=CC(CC(O)=O)=CC=C1O
InChI: InChI=1S/C9H10O4/c1-13-8-4-6(5-9(11)12)2-3-7(8)10/h2-4,10H,5H2,1H3,(H,11,12)
Instrument: Thermo Scientific Q-Exactive Focus
Instrument type: LC-ESI-ITFT
Ms type: MS2
Ion mode: NEGATIVE
Ionization: ESI
Collision energy: 10
Column name: Acquity CSHC18
Retention time: 0.364 min
Base peak: 181.05063
Precursor m/z: 181.05063
Precursor type: [M-H]-
m/z	relative intensity
92.9188	782
112.9844	354
122.0362	133
136.8711	79
136.9087	999
136.9825	164
137.0232	45
137.0597	474
180.8394	83
181.0498	130
