Mass spectrum: TRANS-4-HYDROXY-L-PROLINE; LC-ESI-QFT; MS2; CE: 30eV;  [M+H]+
Name: TRANS-4-HYDROXY-L-PROLINE
Class: NA
Formula: C5H9NO3
Exact mass: 131.05824
SMILES: OC1CN[C@@H](C1)C(O)=O
InChI: InChI=1S/C5H9NO3/c7-3-1-4(5(8)9)6-2-3/h3-4,6-7H,1-2H2,(H,8,9)/t3?,4-/m0/s1
Instrument: Q-Exactive Orbitrap, Thermo Scientfic; Ultimate 3000 HPLC, Thermo Scientfic
Instrument type: LC-ESI-QFT
Ms type: MS2
Ion mode: POSITIVE
Ionization: ESI
Collision energy: 30eV
Column name: Acquity CSHC18
Retention time: 0.601 min
Base peak: 132.0655
Precursor m/z: 132.0655
Precursor type: [M+H]+
Precursor intensity: 157
m/z	relative intensity
51.007	2
52.1572	2
58.0659	15
64.8411	2
68.0503	467
69.0537	6
70.0659	364
74.0608	10
87.0641	30
90.904	6
91.2584	2
97.019	2
114.0555	44
115.0872	27
116.0712	215
131.0506	2
131.1264	3
132.0659	999
132.1025	4
133.0692	26
133.0974	12
133.3837	2
152.3819	2
