Mass spectrum: 6-Phospho gluconic acid; LC-ESI-QTOF; MS2; CE: 15 / 50;  [M-H]-
Name: 6-Phospho gluconic acid
Class: NA
Formula: C6H13O10P
Exact mass: 276.0246
SMILES: C(C(C(C(C(C(=O)O)O)O)O)O)OP(=O)(O)O
InChI: InChI=1S/C6H13O10P/c7-2(1-16-17(13,14)15)3(8)4(9)5(10)6(11)12/h2-5,7-10H,1H2,(H,11,12)(H2,13,14,15)
Instrument: impact II
Instrument type: LC-ESI-QTOF
Ms type: MS2
Ion mode: NEGATIVE
Ionization: ESI
Collision energy: 15 / 50
Column name: Acquity CSHC18
Retention time: 0.694 min
Base peak: 275.0171
Precursor m/z: 275.0171
Precursor type: [M-H]-
m/z	relative intensity
78.9595	999
96.9697	860
99.0088	111
129.0191	150
177.0403	322
257.0066	140
275.017	453
