Mass spectrum: LACTOSE; LC-ESI-QTOF; MS2; CE: 10;  [M+H]+
Name: LACTOSE
Class: NA
Formula: C12H22O11
Exact mass: 342.11621
SMILES: OC[C@H]1O[C@@H](O[C@H]2[C@H](O)[C@@H](O)[C@@H](O)O[C@@H]2CO)[C@H](O)[C@@H](O)[C@H]1O
InChI: InChI=1S/C12H22O11/c13-1-3-5(15)6(16)9(19)12(22-3)23-10-4(2-14)21-11(20)8(18)7(10)17/h3-20H,1-2H2/t3-,4-,5+,6+,7-,8-,9-,10-,11+,12+/m1/s1
Instrument: Agilent 6530Â Q-TOF LC/MS
Instrument type: LC-ESI-QTOF
Ms type: MS2
Ion mode: POSITIVE
Ionization: ESI
Collision energy: 10
Column name: NA
Retention time: 0.200 min
Base peak: 343.12793
Precursor m/z: 343.12793
Precursor type: [M+H]+
Precursor intensity: 116.5
m/z	relative intensity
61.022	501
61.0264	610
61.0309	538
61.0354	430
61.0399	311
61.0444	236
61.0488	208
85.0256	193
91.0255	307
91.031	540
91.0364	540
91.0419	433
91.0474	360
91.0528	302
91.0583	234
127.0214	360
127.0279	820
127.0344	999
127.0408	893
127.0473	700
127.0537	542
127.0602	422
127.0666	319
127.0731	227
145.0324	206
145.0393	450
145.0462	531
145.0531	501
145.06	414
145.0669	321
145.0738	230
163.042	377
163.0494	728
163.0567	790
163.064	681
163.0713	565
163.0786	426
163.0859	311
163.0933	249
163.1006	199
240.2136	272
240.2225	292
240.2313	277
240.2402	214
247.0928	225
247.1019	206
342.2474	217
342.258	311
342.2686	369
342.2792	341
342.2898	285
342.3004	238
342.311	191
343.1492	208
343.1598	236
343.1704	217
343.181	215
343.1916	195
