Mass spectrum: Zeatin riboside; LC-ESI-QTOF; MS2; CE: 50eV;  [M+H]+
Name: Zeatin riboside
Class: purine
Formula: C15H21N5O5
Exact mass: 351.1543
SMILES: CC(=CCNC1=C2C(=NC=N1)N(C=N2)C3C(C(C(O3)CO)O)O)CO
InChI: InChI=1S/C15H21N5O5/c1-8(4-21)2-3-16-13-10-14(18-6-17-13)20(7-19-10)15-12(24)11(23)9(5-22)25-15/h2,6-7,9,11-12,15,21-24H,3-5H2,1H3,(H,16,17,18)
Instrument: TIMS-TOF Pro, Bruker Daltonik; Elute UHPLC System, Bruker Daltonik
Instrument type: LC-ESI-QTOF
Ms type: MS2
Ion mode: POSITIVE
Ionization: ESI
Collision energy: 50eV
Column name: Acquity CSHC18
Retention time: 3.725 min
Base peak: 352.1542
Precursor m/z: 352.1542
Precursor type: [M+H]+
Precursor intensity: 294616.4
m/z	relative intensity
17.9438	6
28.3941	4
38.1177	3
43.0165	59
55.0161	7
57.0325	35
59.0473	6
66.1482	7
67.0519	10
71.0101	13
82.9187	4
85.0268	10
94.0559	8
108.0526	3
115.4379	5
119.0316	131
120.0394	4
135.0558	6
135.737	5
136.057	491
136.3903	15
137.0517	65
138.0332	5
146.0422	16
148.0421	269
149.0622	11
150.0615	4
159.061	18
163.8935	5
178.7805	5
185.0686	39
186.0747	11
202.1031	799
203.1081	30
207.7219	3
214.0625	4
219.7828	6
219.9475	4
220.0699	32
220.3547	14
220.5573	50
221.1161	544
221.8481	2
222.127	16
236.5	4
308.7006	3
335.1437	7
351.6869	5
352.0053	5
352.1259	999
352.2733	3
