Mass spectrum: L-2-Hydroxyglutaric acid; LC-ESI-ITFT; MS2; CE: 100;  [M-H]-
Name: L-2-Hydroxyglutaric acid
Class: Lipids and lipid-like molecules; Fatty Acyls; Fatty acids and conjugates
Formula: C5H8O5
Exact mass: 148.03717
SMILES: O[C@@H](CCC(O)=O)C(O)=O
InChI: InChI=1S/C5H8O5/c6-3(5(9)10)1-2-4(7)8/h3,6H,1-2H2,(H,7,8)(H,9,10)/t3-/m0/s1
Instrument: Thermo Scientific Q-Exactive Focus
Instrument type: LC-ESI-ITFT
Ms type: MS2
Ion mode: NEGATIVE
Ionization: ESI
Collision energy: 100
Column name: Acquity CSHC18
Retention time: 2.360 min
Base peak: 147.02991
Precursor m/z: 147.02991
Precursor type: [M-H]-
m/z	relative intensity
51.3211	775
57.8722	806
60.4616	777
72.0806	999
85.102	814
91.5272	774
104.6096	823
108.2645	850
124.424	823
168.1012	876
