Mass spectrum: Quercetagetin; LC-ESI-QTOF; MS2; CE: 50eV;  [M-H]-
Name: Quercetagetin
Class: Flavonol
Formula: C15H10O8
Exact mass: 318.0376
SMILES: C1=CC(=C(C=C1C2=C(C(=O)C3=C(O2)C=C(C(=C3O)O)O)O)O)O
InChI: InChI=1S/C15H10O8/c16-6-2-1-5(3-7(6)17)15-14(22)13(21)10-9(23-15)4-8(18)11(19)12(10)20/h1-4,16-20,22H
Instrument: TIMS-TOF Pro, Bruker Daltonik; Elute UHPLC System, Bruker Daltonik
Instrument type: LC-ESI-QTOF
Ms type: MS2
Ion mode: NEGATIVE
Ionization: ESI
Collision energy: 50eV
Column name: Acquity CSHC18
Retention time: 5.651 min
Base peak: 317.0257
Precursor m/z: 317.0257
Precursor type: [M-H]-
Precursor intensity: 22097.44
m/z	relative intensity
41.0025	19
69.8166	13
80.0302	10
93.0322	11
95.012	18
96.9926	20
99.0092	9
106.4585	10
109.028	26
109.9999	39
111.0076	105
112.0083	10
116.0575	10
117.4921	10
121.0271	66
123.0091	31
124.0114	10
129.1108	10
134.0317	9
135.676	12
139.0001	79
149.0213	15
150.3349	17
159.0431	18
166.9945	28
167.9984	20
172.0879	11
175.0396	10
185.0329	9
194.9863	35
199.0385	11
227.0332	12
244.0296	10
271.0208	14
273.0311	10
288.7796	14
299.0129	26
316.7703	10
317.0257	999
