Mass spectrum: Gluconolactone; ESI-TOF; MS2; CE: 0.6458333;  [M+H]+
Name: Gluconolactone
Class: NA
Formula: C6H10O6
Exact mass: 178.04774
SMILES: OCC1OC(=O)C(O)C(O)C1O
InChI: InChI=1S/C6H10O6/c7-1-2-3(8)4(9)5(10)6(11)12-2/h2-5,7-10H,1H2
Instrument: waters xevo g2 TOF
Instrument type: ESI-TOF
Ms type: MS2
Ion mode: POSITIVE
Ionization: ESI
Collision energy: 0.6458333
Column name: Acquity CSHC18
Retention time: 0.586 min
Base peak: 179.05574
Precursor m/z: 179.05574
Precursor type: [M+H]+
m/z	relative intensity
73.0293	5
111.0449	295
115.0397	5
125.024	5
128.9865	127
129.0542	5
133.0504	5
139.0398	68
143.0344	5
157.0076	75
157.0497	5
179.0558	5
193.0712	5
204.9801	228
211.0827	5
217.0894	231
219.0483	5
230.0565	5
233.064	999
234.0672	5
235.0691	5
249.9785	5
258.1706	5
272.9919	5
309.9999	5
311.0058	5
340.0102	35
350.0287	48
354.0245	388
431.0925	5
442.042	5
443.0496	5
443.1382	5
460.0489	5
474.0665	5
474.0681	5
475.071	5
