Mass spectrum: Taurine; ESI-TOF; MS2; CE: 0.6458333;  [M+H]+
Name: Taurine
Class: NA
Formula: C2H7NO3S
Exact mass: 125.01466
SMILES: NCCS(O)(=O)=O
InChI: InChI=1S/C2H7NO3S/c3-1-2-7(4,5)6/h1-3H2,(H,4,5,6)
Instrument: waters xevo g2 TOF
Instrument type: ESI-TOF
Ms type: MS2
Ion mode: POSITIVE
Ionization: ESI
Collision energy: 0.6458333
Column name: Acquity CSHC18
Retention time: 0.548 min
Base peak: 126.02266
Precursor m/z: 126.02266
Precursor type: [M+H]+
m/z	relative intensity
98.9626	119
108.012	198
126.0223	999
127.0249	20
128.0189	43
131.5009	1
141.9591	1
148.0039	54
158.0034	1
163.9691	186
178.0248	22
178.9332	74
179.9411	295
181.9421	47
183.9388	12
188.9807	1
192.9476	21
196.9447	38
197.953	22
204.9956	1
207.9732	13
208.9668	13
210.9877	56
211.9639	1
220.9676	1
221.9758	142
222.9787	43
224.9396	1
251.0373	159
251.9872	1
253.0338	16
258.1687	1
258.8913	1
265.9655	1
273.0156	1
274.9948	51
284.999	1
288.984	149
290.9812	11
302.9578	12
303.9486	348
304.9551	242
305.9509	50
306.9536	57
330.0126	1
345.9832	1
376.0522	30
400.0144	13
413.9984	28
415.9961	1
428.9618	80
429.9687	45
430.9652	1
431.9734	12
499.8847	1
501.0658	1
503.0644	1
523.0508	36
553.9779	36
555.9711	1
626.0809	13
627.0751	1
751.0904	1
773.0829	1
804.0051	1
876.1038	1
