Mass spectrum: 17-phenoxy trinor Prostaglandin F2-alpha; ESI-TOF; MS2; CE: 0.6458333;  [M+H]+
Name: 17-phenoxy trinor Prostaglandin F2-alpha
Class: NA
Formula: C23H32O6
Exact mass: 404.21989
SMILES: OC(=O)CCC/C=C\C[C@H]1[C@@H](O)C[C@@H](O)[C@@H]1\C=C\[C@@H](O)CCOc1ccccc1
InChI: InChI=1S/C23H32O6/c24-17(14-15-29-18-8-4-3-5-9-18)12-13-20-19(21(25)16-22(20)26)10-6-1-2-7-11-23(27)28/h1,3-6,8-9,12-13,17,19-22,24-26H,2,7,10-11,14-16H2,(H,27,28)/b6-1-,13-12+/t17-,19-,20-,21+,22-/m1/s1
Instrument: waters xevo g2 TOF
Instrument type: ESI-TOF
Ms type: MS2
Ion mode: POSITIVE
Ionization: ESI
Collision energy: 0.6458333
Column name: Acquity CSHC18
Retention time: 3.382 min
Base peak: 405.22789
Precursor m/z: 405.22789
Precursor type: [M+H]+
m/z	relative intensity
67.0547	20
79.0531	79
81.0694	30
91.0547	226
93.0698	62
103.0556	48
105.0708	751
107.0498	256
109.0663	23
117.0708	152
119.0863	123
121.0645	45
128.0638	44
129.071	140
131.0501	258
133.0324	999
134.0688	171
144.0608	19
145.1043	115
147.0814	132
149.0976	27
155.0855	124
157.0643	245
158.0679	29
159.0809	358
160.0828	26
161.0946	44
167.0846	56
169.1014	141
171.0986	152
173.0973	44
183.0815	534
184.0829	57
185.0966	202
187.1138	117
195.0786	141
196.0874	22
197.1144	38
199.1109	38
205.1225	69
207.0806	55
209.0957	339
210.1051	22
211.1098	63
221.1142	88
223.112	561
224.1178	141
225.1256	65
237.1289	94
239.1444	74
247.1114	35
249.1252	84
250.1366	21
261.1267	35
275.1667	13
287.0944	131
289.153	31
295.102	70
303.0674	42
315.1744	238
323.1655	18
333.1838	419
351.1954	953
352.1981	235
368.1079	382
369.2053	54
371.1122	48
381.1492	337
397.1107	264
398.1102	72
405.1119	75
