Mass spectrum: Retinyl Acetate; LC-ESI-QTOF; MS2; CE: 100;  [M+H]+
Name: Retinyl Acetate
Class: Retinoids
Formula: C22H32O2
Exact mass: 328.24023
SMILES: CC(=O)OC\C=C(/C)\C=C\C=C(\C)/C=C/C1=C(C)CCCC1(C)C
InChI: InChI=1S/C22H32O2/c1-17(9-7-10-18(2)14-16-24-20(4)23)12-13-21-19(3)11-8-15-22(21,5)6/h7,9-10,12-14H,8,11,15-16H2,1-6H3/b10-7+,13-12+,17-9-,18-14+
Instrument: impact II
Instrument type: LC-ESI-QTOF
Ms type: MS2
Ion mode: POSITIVE
Ionization: ESI
Collision energy: 100
Column name: Acquity CSHC18
Retention time: 1.815 min
Base peak: 329.24810
Precursor m/z: 329.24810
Precursor type: [M+H]+
m/z	relative intensity
51.0233	310
53.039	256
55.0546	221
65.0393	331
77.0388	211
91.0541	703
95.0492	134
103.0539	226
105.0449	312
105.0695	175
115.0546	834
116.0591	102
117.0701	120
127.0539	116
128.062	999
129.0691	233
141.0698	681
152.0616	317
153.0694	295
155.0606	197
165.0703	350
167.0856	110
