Mass spectrum: TRANS-4-HYDROXY-L-PROLINE; LC-ESI-QTOF; MS2; CE: 20;  [M-H]-
Name: TRANS-4-HYDROXY-L-PROLINE
Class: NA
Formula: C5H9NO3
Exact mass: 131.05824
SMILES: O[C@H]1CN[C@@H](C1)C(O)=O
InChI: InChI=1S/C5H9NO3/c7-3-1-4(5(8)9)6-2-3/h3-4,6-7H,1-2H2,(H,8,9)/t3-,4+/m1/s1
Instrument: Agilent 6530Â Q-TOF LC/MS
Instrument type: LC-ESI-QTOF
Ms type: MS2
Ion mode: NEGATIVE
Ionization: ESI
Collision energy: 20
Column name: NA
Retention time: 0.200 min
Base peak: 130.04908
Precursor m/z: 130.04908
Precursor type: [M-H]-
Precursor intensity: 109
m/z	relative intensity
41.0069	134
42.0341	138
43.0176	177
45.0014	202
55.0177	251
57.0394	255
66.0419	315
68.0539	361
71.0258	415
72.0175	480
73.0358	509
82.0404	537
84.0576	556
110.0182	586
128.0556	867
130.0654	999
