Mass spectrum: Rutin; LC-ESI-QTOF; MS2; CE: 7-62eV;  [M-H]-
Name: Rutin
Class: Phenolics
Formula: C27H30O16
Exact mass: 610.1534
SMILES: CC1C(C(C(C(O1)OCC2C(C(C(C(O2)OC3=C(OC4=CC(=CC(=C4C3=O)O)O)C5=CC(=C(C=C5)O)O)O)O)O)O)O)O
InChI: InChI=1S/C27H30O16/c1-8-17(32)20(35)22(37)26(40-8)39-7-15-18(33)21(36)23(38)27(42-15)43-25-19(34)16-13(31)5-10(28)6-14(16)41-24(25)9-2-3-11(29)12(30)4-9/h2-6,8,15,17-18,20-23,26-33,35-38H,7H2,1H3
Instrument: Bruker MicrOTOF-Q
Instrument type: LC-ESI-QTOF
Ms type: MS2
Ion mode: NEGATIVE
Ionization: ESI
Collision energy: 7-62eV
Column name: Acquity CSHC18
Retention time: 32.839 min
Base peak: 609.1434
Precursor m/z: 609.1434
Precursor type: [M-H]-
Precursor intensity: 48390.06
m/z	relative intensity
151.0065	103
255.0369	120
271.0306	121
272.0182	125
300.0332	317
301.0393	382
302.036	894
609.1669	999
