Mass spectrum: 11-deoxy-11-methylene Prostaglandin D2; ESI-TOF; MS2; CE: 6.0000000;  [M+H]+
Name: 11-deoxy-11-methylene Prostaglandin D2
Class: NA
Formula: C21H34O4
Exact mass: 350.24571
SMILES: CCCCCC(O)/C=C/[C@H]1C(=C)CC(O)C1C/C=C\CCCC(=O)O
InChI: InChI=1S/C21H34O4/c1-3-4-7-10-17(22)13-14-18-16(2)15-20(23)19(18)11-8-5-6-9-12-21(24)25/h5,8,13-14,17-20,22-23H,2-4,6-7,9-12,15H2,1H3,(H,24,25)/b8-5-,14-13+/t17?,18-,19?,20?/m0/s1
Instrument: waters xevo g2 TOF
Instrument type: ESI-TOF
Ms type: MS2
Ion mode: POSITIVE
Ionization: ESI
Collision energy: 6.0000000
Column name: Acquity CSHC18
Retention time: 4.103 min
Base peak: 351.25371
Precursor m/z: 351.25371
Precursor type: [M+H]+
m/z	relative intensity
119.0868	2
145.1024	4
186.1078	3
187.1486	16
189.1641	3
195.1121	2
203.1766	4
217.1195	8
221.1534	4
231.1379	12
259.1676	4
269.2224	3
272.2076	2
279.2117	34
289.2162	131
290.2217	22
291.2311	30
297.2215	125
298.2253	27
301.2194	4
313.2161	2
315.2319	999
316.2368	240
333.2432	269
334.2456	64
335.25	6
352.2106	5
