Mass spectrum: Guanine; LC-ESI-ITFT; MS2; CE: 60;  [M-H]-
Name: Guanine
Class: Organoheterocyclic compounds; Imidazopyrimidines; Purines and purine derivatives
Formula: C5H5N5O
Exact mass: 151.04941
SMILES: NC1=NC(=O)C2=C(N1)N=CN2
InChI: InChI=1S/C5H5N5O/c6-5-9-3-2(4(11)10-5)7-1-8-3/h1H,(H4,6,7,8,9,10,11)
Instrument: Thermo Scientific Q-Exactive Focus
Instrument type: LC-ESI-ITFT
Ms type: MS2
Ion mode: NEGATIVE
Ionization: ESI
Collision energy: 60
Column name: Acquity CSHC18
Retention time: 2.031 min
Base peak: 150.04213
Precursor m/z: 150.04213
Precursor type: [M-H]-
m/z	relative intensity
64.3451	62
66.0085	999
81.1429	99
82.5644	63
86.0216	65
87.7842	61
92.2501	73
107.0836	64
141.791	65
168.3128	61
