Mass spectrum: escin; LC-ESI-ITFT; MS2; CE: 0.3;  [M-H]-
Name: escin
Class: saponins
Formula: C55H86O24
Exact mass: 1130.5509
SMILES: CC=C(C)C(=O)OC1C(C2(C(CC1(C)C)C3=CCC4C5(CCC(C(C5CCC4(C3(CC2O)C)C)(C)CO)OC6C(C(C(C(O6)C(=O)O)OC7C(C(C(C(O7)CO)O)O)O)O)OC8C(C(C(C(O8)CO)O)O)O)C)CO)OC(=O)C
InChI: InChI=1S/C55H86O24/c1-10-23(2)46(71)79-43-44(72-24(3)60)55(22-59)26(17-50(43,4)5)25-11-12-30-51(6)15-14-32(52(7,21-58)29(51)13-16-53(30,8)54(25,9)18-31(55)61)75-49-41(77-48-38(67)36(65)34(63)28(20-57)74-48)39(68)40(42(78-49)45(69)70)76-47-37(66)35(64)33(62)27(19-56)73-47/h10-11,26-44,47-49,56-59,61-68H,12-22H2,1-9H3,(H,69,70)
Instrument: LTQ-Orbitrap XL hybrid mass spectrometer (Thermo Scientific)
Instrument type: LC-ESI-ITFT
Ms type: MS2
Ion mode: NEGATIVE
Ionization: ESI
Collision energy: 0.3
Column name: Acquity CSHC18
Retention time: 10.539 min
Base peak: 1129.5410
Precursor m/z: 1129.5410
Precursor type: [M-H]-
Precursor intensity: 2493552
m/z	relative intensity
324.2202	52
372.9364	18
477.96	26
629.4044	52
637.0015	15
688.2509	19
697.4302	725
761.8043	16
769.416	999
905.488	368
949.48	202
1008.6634	17
1056.4764	16
1085.5496	123
