Mass spectrum: Pyridoxine; LC-ESI-ITFT; MS2; CE: 60;  [M+H]+
Name: Pyridoxine
Class: Organoheterocyclic compounds; Pyridines and derivatives; Pyridoxines
Formula: C8H11NO3
Exact mass: 169.07389
SMILES: CC1=C(O)C(CO)=C(CO)C=N1
InChI: InChI=1S/C8H11NO3/c1-5-8(12)7(4-11)6(3-10)2-9-5/h2,10-12H,3-4H2,1H3
Instrument: Thermo Scientific Q-Exactive Focus
Instrument type: LC-ESI-ITFT
Ms type: MS2
Ion mode: POSITIVE
Ionization: ESI
Collision energy: 60
Column name: Acquity CSHC18
Retention time: 2.014 min
Base peak: 170.08118
Precursor m/z: 170.08118
Precursor type: [M+H]+
m/z	relative intensity
50.0157	129
51.0235	523
53.0392	403
65.0391	196
67.0422	119
77.039	172
80.0499	999
94.0655	273
95.0495	423
106.0654	194
