Mass spectrum: N1-ACETYLSPERMINE; LC-ESI-QTOF; MS2; CE: 40;  [M+H]+
Name: N1-ACETYLSPERMINE
Class: NA
Formula: C12H28N4O
Exact mass: 244.22631
SMILES: CC(=O)NCCCNCCCCNCCCN
InChI: InChI=1S/C12H28N4O/c1-12(17)16-11-5-10-15-8-3-2-7-14-9-4-6-13/h14-15H,2-11,13H2,1H3,(H,16,17)
Instrument: Agilent 6530Â Q-TOF LC/MS
Instrument type: LC-ESI-QTOF
Ms type: MS2
Ion mode: POSITIVE
Ionization: ESI
Collision energy: 40
Column name: NA
Retention time: 0.200 min
Base peak: 245.23102
Precursor m/z: 245.23102
Precursor type: [M+H]+
Precursor intensity: 27.5
m/z	relative intensity
41.0509	20
42.052	20
43.0445	21
44.0505	21
55.0787	22
56.0635	23
58.1368	23
58.3598	24
58.4747	24
67.0533	25
70.0857	26
71.0654	28
72.0934	30
72.4759	38
84.5006	46
98.0963	127
100.1141	134
100.4469	160
102.0838	207
110.0988	299
112.1468	300
112.3289	549
112.6055	618
129.1323	634
131.9118	974
229.2815	999
