Mass spectrum: Sclareol; LC-ESI-QTOF; MS2; CE: 15.00;  [M-2H2O+H]+
Name: Sclareol
Class: NA
Formula: C20H36O2
Exact mass: 308.2715
SMILES: CC1(CCCC2(C1CCC(C2CCC(C)(C=C)O)(C)O)C)C
InChI: InChI=1S/C20H36O2/c1-7-18(4,21)13-9-16-19(5)12-8-11-17(2,3)15(19)10-14-20(16,6)22/h7,15-16,21-22H,1,8-14H2,2-6H3
Instrument: Bruker MicrOTOF-Q
Instrument type: LC-ESI-QTOF
Ms type: MS2
Ion mode: POSITIVE
Ionization: ESI
Collision energy: 15.00
Column name: Acquity CSHC18
Retention time: NA
Base peak: 273.2577
Precursor m/z: 273.2577
Precursor type: [M-2H2O+H]+
m/z	relative intensity
91.05	79
93.07	102
95.08	170
97.1	22
103.05	11
105.07	124
106.06	11
107.06	187
108.09	56
109.1	942
109.965	22
111.11	79
112.12	11
114.52	11
119.08	192
120.09	11
121.065	454
122.1	90
123.11	590
123.64	11
124.15	22
125.13	34
126.14	11
131.1	11
133.1	249
134.1	11
135.3	408
136.12	68
137.215	130
138.14	34
139.92	11
147.12	363
148.285	34
149.3467	832
150.14	249
150.71	11
151.15	56
152.21	11
152.79	11
159.15	11
161.13	601
162.8571	828
164.4117	240
165.235	73
166.19	17
166.845	11
170.89	11
171.4	11
173.13	22
175.28	482
176.15	68
177.358	331
178.17	113
179.18	68
187.14	34
188.15	11
189.16	999
191.155	461
193.2267	15
202.09	11
203.12	823
203.7	11
204.18	283
205.19	147
205.85	11
210.57	11
215.18	56
216.11	11
217.5457	377
219.08	11
227.3	11
230.2	22
231.21	420
232.21	34
234.72	11
245.22	68
247.38	11
252.68	11
257.22	11
271.24	11
271.8	11
273.8067	477
275.28	22
275.86	11
279.23	11
296.78	11
315.09	11
341.92	11
374.75	11
385.15	11
387.06	11
414.02	11
463.58	11
500.3	11
520.17	11
551.41	11
575.48	11
576.1	11
646.33	11
