Mass spectrum: Kaempferol; LC-ESI-QTOF; MS2; CE: 50eV;  [M-H]-
Name: Kaempferol
Class: Flavonol
Formula: C15H10O6
Exact mass: 286.0477
SMILES: C1=CC(=CC=C1C2=C(C(=O)C3=C(C=C(C=C3O2)O)O)O)O
InChI: InChI=1S/C15H10O6/c16-8-3-1-7(2-4-8)15-14(20)13(19)12-10(18)5-9(17)6-11(12)21-15/h1-6,16-18,20H
Instrument: TIMS-TOF Pro, Bruker Daltonik; Elute UHPLC System, Bruker Daltonik
Instrument type: LC-ESI-QTOF
Ms type: MS2
Ion mode: NEGATIVE
Ionization: ESI
Collision energy: 50eV
Column name: Acquity CSHC18
Retention time: 7.465 min
Base peak: 285.0353
Precursor m/z: 285.0353
Precursor type: [M-H]-
Precursor intensity: 78294.11
m/z	relative intensity
24.1445	1
38.5388	1
45.5025	1
50.8307	1
52.0827	1
54.5079	1
63.0224	11
64.0303	2
65.0016	16
66.011	1
67.0179	6
68.9982	1
74.274	1
77.0387	6
79.0164	2
80.0274	1
83.014	6
84.2541	1
91.016	2
92.0251	13
93.0155	23
94.0371	1
95.0136	2
102.9223	1
105.0317	5
105.4474	1
107.0108	7
108.0195	23
108.3836	2
109.028	5
117.0329	33
118.0363	1
119.0474	4
120.0179	1
121.0288	5
122.0039	1
124.0132	1
129.0302	1
130.0406	9
131.0476	4
132.0169	2
133.0279	7
135.0065	3
136.016	3
137.0219	5
137.8777	1
139.482	1
141.0337	3
143.135	1
144.0513	1
145.0276	8
146.03	1
147.0435	1
148.5674	1
150.1649	1
151.0008	9
152.0138	1
153.9602	1
154.0423	2
155.0459	4
156.0567	1
157.0273	3
158.0346	8
159.0431	9
160.011	1
161.0218	9
162.9986	2
164.0208	1
167.019	1
171.0409	4
172.0487	1
173.0594	1
174.0294	3
183.0394	5
185.0586	8
186.0423	1
187.0394	2
188.0392	3
201.0523	2
211.0395	1
212.0416	1
218.4445	1
228.0322	1
229.0452	2
240.0338	1
241.0487	2
243.0258	3
255.0228	1
257.0411	11
258.0457	1
267.0279	1
281.9399	1
284.6362	1
284.7692	1
284.9329	1
285.0353	999
285.2963	1
285.4947	6
