Mass spectrum: GLUTARATE; LC-ESI-QTOF; MS2; CE: 20;  [M-H]-
Name: GLUTARATE
Class: NA
Formula: C5H8O4
Exact mass: 132.04226
SMILES: OC(=O)CCCC(O)=O
InChI: InChI=1S/C5H8O4/c6-4(7)2-1-3-5(8)9/h1-3H2,(H,6,7)(H,8,9)
Instrument: Agilent 6530Â Q-TOF LC/MS
Instrument type: LC-ESI-QTOF
Ms type: MS2
Ion mode: NEGATIVE
Ionization: ESI
Collision energy: 20
Column name: NA
Retention time: 0.200 min
Base peak: 131.03605
Precursor m/z: 131.03605
Precursor type: [M-H]-
Precursor intensity: 116
m/z	relative intensity
41.0153	161
59.0166	292
69.037	302
87.0569	834
87.821	999
