Mass spectrum: Salonitenolide; LC-ESI-ITFT; MS2; CE: 50eV;  [M+H]+
Name: Salonitenolide
Class: Sesquiterpenelactone; Germacrolide
Formula: C15H20O4
Exact mass: 264.1362
SMILES: C/C/1=C\CC/C(=C/[C@@H]2[C@@H]([C@H](C1)O)C(=C)C(=O)O2)/CO
InChI: InChI=1S/C15H20O4/c1-9-4-3-5-11(8-16)7-13-14(12(17)6-9)10(2)15(18)19-13/h4,7,12-14,16-17H,2-3,5-6,8H2,1H3/b9-4+,11-7-/t12-,13+,14+/m0/s1
Instrument: Q Exactive Plus, ThermoFisher Scientific
Instrument type: LC-ESI-ITFT
Ms type: MS2
Ion mode: POSITIVE
Ionization: ESI
Collision energy: 50eV
Column name: Acquity CSHC18
Retention time: 4.874 min
Base peak: 265.1436
Precursor m/z: 265.1436
Precursor type: [M+H]+
Precursor intensity: 31562550
m/z	relative intensity
65.8089	32
67.0546	46
69.6536	58
69.6564	65
71.0499	425
79.0548	63
81.0705	44
83.0135	35
91.055	358
93.0704	164
93.6788	36
95.0498	56
97.4415	38
99.0448	481
105.0703	258
107.2199	34
109.065	178
117.0705	234
119.0856	60
128.0616	320
129.0707	85
131.0855	191
142.0774	46
143.0852	999
145.0647	91
145.1011	54
147.0806	66
154.0778	42
155.0858	84
157.1019	54
159.0795	58
159.1176	168
161.0966	68
168.0945	140
171.0812	206
172.0874	40
183.1164	66
189.0919	83
201.1274	45
239.5696	40
