Mass spectrum: L-DOPA; LC-ESI-QTOF; MS2; CE: 20;  [M-H]-
Name: L-DOPA
Class: NA
Formula: C9H11NO4
Exact mass: 197.06881
SMILES: N[C@@H](CC1=CC(O)=C(O)C=C1)C(O)=O
InChI: InChI=1S/C9H11NO4/c10-6(9(13)14)3-5-1-2-7(11)8(12)4-5/h1-2,4,6,11-12H,3,10H2,(H,13,14)/t6-/m0/s1
Instrument: Agilent 6530Â Q-TOF LC/MS
Instrument type: LC-ESI-QTOF
Ms type: MS2
Ion mode: NEGATIVE
Ionization: ESI
Collision energy: 20
Column name: NA
Retention time: 0.200 min
Base peak: 196.06640
Precursor m/z: 196.06640
Precursor type: [M-H]-
Precursor intensity: 153
m/z	relative intensity
72.0123	103
74.0287	134
107.0545	140
108.0268	162
109.0395	172
121.0322	180
122.0532	186
123.0499	229
134.0519	314
135.063	396
179.0367	461
196.0624	999
