Mass spectrum: p-Hydroxyphenylacetic acid; LC-ESI-ITFT; MS2; CE: 40;  [M-H]-
Name: p-Hydroxyphenylacetic acid
Class: Benzenoids; Phenols; 1-hydroxy-2-unsubstituted benzenoids
Formula: C8H8O3
Exact mass: 152.04734
SMILES: OC(=O)CC1=CC=C(O)C=C1
InChI: InChI=1S/C8H8O3/c9-7-3-1-6(2-4-7)5-8(10)11/h1-4,9H,5H2,(H,10,11)
Instrument: Thermo Scientific Q-Exactive Focus
Instrument type: LC-ESI-ITFT
Ms type: MS2
Ion mode: NEGATIVE
Ionization: ESI
Collision energy: 40
Column name: Acquity CSHC18
Retention time: 1.481 min
Base peak: 151.04007
Precursor m/z: 151.04007
Precursor type: [M-H]-
m/z	relative intensity
93.0334	601
93.1207	368
94.9918	999
95.5012	390
98.8128	359
107.2256	360
108.7886	381
142.213	401
144.712	360
147.7075	392
