Mass spectrum: URIDINE MONOPHOSPHATE; LC-ESI-QFT; MS2; CE: 30eV;  [M+H]+
Name: URIDINE MONOPHOSPHATE
Class: NA
Formula: C9H13N2O9P
Exact mass: 324.03587
SMILES: O[C@H]1[C@@H](O)[C@@H](O[C@@H]1COP(O)(O)=O)N1C=CC(=O)NC1=O
InChI: InChI=1S/C9H13N2O9P/c12-5-1-2-11(9(15)10-5)8-7(14)6(13)4(20-8)3-19-21(16,17)18/h1-2,4,6-8,13-14H,3H2,(H,10,12,15)(H2,16,17,18)/t4-,6-,7-,8-/m1/s1
Instrument: Q-Exactive Orbitrap, Thermo Scientfic; Ultimate 3000 HPLC, Thermo Scientfic
Instrument type: LC-ESI-QFT
Ms type: MS2
Ion mode: POSITIVE
Ionization: ESI
Collision energy: 30eV
Column name: Acquity CSHC18
Retention time: 0.656 min
Base peak: 325.0432
Precursor m/z: 325.0432
Precursor type: [M+H]+
Precursor intensity: 193
m/z	relative intensity
69.0342	13
73.2836	1
75.9463	1
78.2133	1
96.1614	1
97.029	999
97.1257	1
98.0323	18
98.8296	1
112.4029	1
112.7291	1
113.035	55
113.039	1
115.0398	1
115.9556	1
122.7342	1
134.2934	1
166.0503	1
209.0559	1
227.0663	14
233.0253	1
256.2005	1
257.3067	1
257.3539	1
267.2632	1
273.8327	1
276.3702	1
284.3289	1
292.5558	1
344.7986	1
