Mass spectrum: (3S,5S,8R,9S,10S,13S,14S,16R,17R)-10,13-dimethyl-17-((S)-1-(5-methylpyridin-2-yl)ethyl)hexadecahydro-1H-cyclopenta[a]phenanthrene-3,16-diyl diacetate; APCI-ITFT; MS2; CE: 70 HCD;  [M+H]+
Name: (3S,5S,8R,9S,10S,13S,14S,16R,17R)-10,13-dimethyl-17-((S)-1-(5-methylpyridin-2-yl)ethyl)hexadecahydro-1H-cyclopenta[a]phenanthrene-3,16-diyl diacetate
Class: NA
Formula: C31H45NO4
Exact mass: 495.33486
SMILES: C[C@@]12[C@](CC[C@]3([H])[C@@]([H])2CC[C@@]4(C)[C@@]3([H])C[C@@H](OC(C)=O)[C@]4([H])[C@H](C)C5=NC=C(C)C=C5)([H])C[C@@H](OC(C)=O)CC1
InChI: InChI=1S/C31H45NO4/c1-18-7-10-27(32-17-18)19(2)29-28(36-21(4)34)16-26-24-9-8-22-15-23(35-20(3)33)11-13-30(22,5)25(24)12-14-31(26,29)6/h7,10,17,19,22-26,28-29H,8-9,11-16H2,1-6H3/t19-,22+,23+,24-,25+,26+,28-,29+,30+,31+/m1/s1
Instrument: Orbitrap Elite
Instrument type: APCI-ITFT
Ms type: MS2
Ion mode: POSITIVE
Ionization: APCI
Collision energy: 70 HCD
Column name: Acquity CSHC18
Retention time: 2.005 min
Base peak: 496.34300
Precursor m/z: 496.34300
Precursor type: [M+H]+
Precursor intensity: 941360.6
m/z	relative intensity
51.7293	15
52.7317	18
58.7062	15
63.5264	14
66.3874	14
70.7127	13
73.0171	15
73.9982	13
77.0387	58
79.0542	182
80.2873	16
81.0699	158
81.7835	14
83.3596	15
88.76	15
90.1912	14
91.0544	257
92.0496	64
93.07	172
94.0658	18
95.0851	104
97.7104	14
98.7195	13
103.0546	30
105.0445	45
105.0701	431
106.0649	31
107.0726	119
107.0858	118
107.7975	14
109.1016	43
110.0599	68
117.0693	63
119.0852	240
120.0807	999
121.0891	63
121.1014	38
122.0969	249
125.4006	13
129.0694	25
130.0774	27
131.0854	83
131.9683	16
133.1011	89
135.1175	19
141.0692	16
143.0841	18
144.0803	18
144.0951	15
145.1017	112
147.117	144
149.1325	16
159.118	105
160.1113	17
161.133	598
171.1166	20
173.1331	49
173.9878	14
191.347	17
201.6724	16
225.7415	23
237.3612	16
255.2124	19
258.775	15
304.2545	16
356.889	15
358.3873	14
376.3028	49
388.7803	15
409.6627	18
413.9082	15
428.2664	14
