Mass spectrum: L-Threonine; LC-ESI-ITFT; MS2; CE: 30;  [M-H]-
Name: L-Threonine
Class: Organic acids and derivatives; Carboxylic acids and derivatives; Amino acids, peptides, and analogues
Formula: C4H9NO3
Exact mass: 119.05824
SMILES: C[C@@H](O)[C@H](N)C(O)=O
InChI: InChI=1S/C4H9NO3/c1-2(6)3(5)4(7)8/h2-3,6H,5H2,1H3,(H,7,8)/t2-,3+/m1/s1
Instrument: Thermo Scientific Q-Exactive Focus
Instrument type: LC-ESI-ITFT
Ms type: MS2
Ion mode: NEGATIVE
Ionization: ESI
Collision energy: 30
Column name: Acquity CSHC18
Retention time: 0.928 min
Base peak: 118.05097
Precursor m/z: 118.05097
Precursor type: [M-H]-
m/z	relative intensity
61.0058	76
62.809	78
64.8481	77
74.0235	158
79.105	75
87.0962	82
93.778	74
100.9247	999
116.4418	74
116.9355	79
