Mass spectrum: Lysine; LC-ESI-QTOF; MS2; CE: 60;  [M+H]+
Name: Lysine
Class: NA
Formula: C6H14N2O2
Exact mass: 146.10553
SMILES: C(CCN)CC(C(=O)O)N
InChI: InChI=1S/C6H14N2O2/c7-4-2-1-3-5(8)6(9)10/h5H,1-4,7-8H2,(H,9,10)
Instrument: impact II
Instrument type: LC-ESI-QTOF
Ms type: MS2
Ion mode: POSITIVE
Ionization: ESI
Collision energy: 60
Column name: Acquity CSHC18
Retention time: 1.856 min
Base peak: 147.11310
Precursor m/z: 147.11310
Precursor type: [M+H]+
m/z	relative intensity
51.0233	239
56.0501	999
62.929	270
64.9286	761
65.039	123
67.0551	168
68.0524	164
100.9511	106
