Mass spectrum: L-Histidinol; ESI-TOF; MS2; CE: 6.0000000;  [M+H]+
Name: L-Histidinol
Class: NA
Formula: C6H11N3O
Exact mass: 141.09021
SMILES: NC(CO)CC1=CN=CN1
InChI: InChI=1S/C6H11N3O/c7-5(3-10)1-6-2-8-4-9-6/h2,4-5,10H,1,3,7H2,(H,8,9)
Instrument: waters xevo g2 TOF
Instrument type: ESI-TOF
Ms type: MS2
Ion mode: POSITIVE
Ionization: ESI
Collision energy: 6.0000000
Column name: Acquity CSHC18
Retention time: 0.447 min
Base peak: 142.09821
Precursor m/z: 142.09821
Precursor type: [M+H]+
m/z	relative intensity
81.0456	3
113.9643	9
124.0874	756
125.0722	181
126.0744	8
138.9899	7
138.9908	5
142.098	999
142.9606	1
143.1005	76
158.0031	8
164.0789	1
337.105	3
339.1067	3
