Mass spectrum: Psoralen; LC-ESI-ITFT; MS2; CE: 45eV;  [M+H]+
Name: Psoralen
Class: coumarin
Formula: C11H6O3
Exact mass: 186.0317
SMILES: C1=CC(=O)OC2=CC3=C(C=CO3)C=C21
InChI: InChI=1S/C11H6O3/c12-11-2-1-7-5-8-3-4-13-9(8)6-10(7)14-11/h1-6H
Instrument: LTQ Orbitrap XL, Thermo Scientfic; Dionex Ultimate 300
Instrument type: LC-ESI-ITFT
Ms type: MS2
Ion mode: POSITIVE
Ionization: ESI
Collision energy: 45eV
Column name: Alltima C18
Retention time: 17.21 min
Base peak: 187.0390
Precursor m/z: 187.0390
Precursor type: [M+H]+
m/z	relative intensity
126.8974	1
142.8922	999
155.1523	1
