Mass spectrum: p-Coumaroyl Tyramine; LC-ESI-ITFT; MS2; CE: 35eV;  [M-H]-
Name: p-Coumaroyl Tyramine
Class: Phenolamide
Formula: C17H17NO3
Exact mass: 283.1208
SMILES: C1=CC(=CC=C1CCNC(=O)C=CC2=CC=C(C=C2)O)O
InChI: InChI=1S/C17H17NO3/c19-15-6-1-13(2-7-15)5-10-17(21)18-12-11-14-3-8-16(20)9-4-14/h1-10,19-20H,11-12H2,(H,18,21)
Instrument: LTQ Orbitrap XL, Thermo Scientfic; Dionex Ultimate 300
Instrument type: LC-ESI-ITFT
Ms type: MS2
Ion mode: NEGATIVE
Ionization: ESI
Collision energy: 35eV
Column name: Lichrospher C18 Column 250*4 5um, Interchim
Retention time: 50.35 min
Base peak: 282.1117
Precursor m/z: 282.1117
Precursor type: [M-H]-
m/z	relative intensity
119.2968	1
145.2337	1
282.1968	999
