Mass spectrum: Maltitol; ESI-TOF; MS2; CE: 0.6458333;  [M+H]+
Name: Maltitol
Class: NA
Formula: C12H24O11
Exact mass: 344.13186
SMILES: OCC(O)C(O)C(OC1OC(CO)C(O)C(O)C1O)C(O)CO
InChI: InChI=1S/C12H24O11/c13-1-4(16)7(18)11(5(17)2-14)23-12-10(21)9(20)8(19)6(3-15)22-12/h4-21H,1-3H2
Instrument: waters xevo g2 TOF
Instrument type: ESI-TOF
Ms type: MS2
Ion mode: POSITIVE
Ionization: ESI
Collision energy: 0.6458333
Column name: Acquity CSHC18
Retention time: 0.554 min
Base peak: 345.13986
Precursor m/z: 345.13986
Precursor type: [M+H]+
m/z	relative intensity
69.0346	123
83.0493	4
99.0447	66
111.0446	85
129.0554	120
130.058	4
137.9883	4
147.0663	77
154.9906	4
156.9911	4
163.9767	4
165.0761	4
166.08	4
170.9721	92
173.981	4
183.0871	262
184.0899	4
202.0598	76
205.0681	149
237.005	4
278.0322	4
296.0188	213
345.1399	4
364.1136	50
367.1211	999
368.1239	197
380.0413	4
383.0918	4
398.0467	4
399.0562	4
418.0768	135
580.1312	156
689.2741	4
711.2524	75
712.2513	4
742.1838	97
743.1852	4
