Mass spectrum: Biotin; LC-ESI-QTOF; MS2; CE: 60;  [M-H]-
Name: Biotin
Class: NA
Formula: C10H16N2O3S
Exact mass: 244.0882
SMILES: C1C2C(C(S1)CCCCC(=O)O)NC(=O)N2
InChI: InChI=1S/C10H16N2O3S/c13-8(14)4-2-1-3-7-9-6(5-16-7)11-10(15)12-9/h6-7,9H,1-5H2,(H,13,14)(H2,11,12,15)
Instrument: impact II
Instrument type: LC-ESI-QTOF
Ms type: MS2
Ion mode: NEGATIVE
Ionization: ESI
Collision energy: 60
Column name: Acquity CSHC18
Retention time: 0.748 min
Base peak: 243.0811
Precursor m/z: 243.0811
Precursor type: [M-H]-
m/z	relative intensity
71.9909	876
72.9984	648
74.0074	707
85.0114	999
95.0239	538
103.0593	614
