Mass spectrum: Sphinganine; LC-ESI-QTOF; MS2; CE: 10;  [M+H]+
Name: Sphinganine
Class: NA
Formula: C18H39NO2
Exact mass: 301.2981
SMILES: CCCCCCCCCCCCCCCC(C(CO)N)O
InChI: InChI=1S/C18H39NO2/c1-2-3-4-5-6-7-8-9-10-11-12-13-14-15-18(21)17(19)16-20/h17-18,20-21H,2-16,19H2,1H3
Instrument: Agilent 6560Â Ion Mobility Q-TOF LC/MS
Instrument type: LC-ESI-QTOF
Ms type: MS2
Ion mode: POSITIVE
Ionization: ESI
Collision energy: 10
Column name: Acquity CSHC18
Retention time: 0.200 min
Base peak: 302.3096
Precursor m/z: 302.3096
Precursor type: [M+H]+
Precursor intensity: 64.5
m/z	relative intensity
95.083	238
95.0863	209
95.0897	99
95.0931	84
99.9778	117
99.9813	286
99.9848	205
99.9882	165
99.9917	99
100.0021	40
225.0014	396
225.0066	378
225.0118	304
225.017	154
225.0223	161
225.0275	47
241.9795	99
241.9849	433
241.9903	506
241.9957	359
242.0011	235
242.0066	117
242.012	73
242.9484	40
242.9809	99
242.9863	279
242.9917	88
243.0026	44
260.949	154
260.9546	418
260.9602	216
260.9659	139
260.9715	80
261.5614	66
266.2766	143
266.2823	249
266.288	128
266.2937	88
266.2993	44
267.2588	110
267.2645	271
267.2702	113
267.2759	99
267.2816	58
284.2855	290
284.2914	999
284.2972	558
284.3031	411
284.3089	304
284.3148	209
284.3207	88
284.3265	66
302.3091	139
302.3152	132
302.3212	73
