Mass spectrum: 7-HydroxyCholesterol; LC-ESI-QTOF; MS2; CE: 60;  [M-2H2O+H]+
Name: 7-HydroxyCholesterol
Class: NA
Formula: C27H46O2
Exact mass: 402.34978
SMILES: CC(C)CCCC(C)C1CCC2C1(CCC3C2C(C=C4C3(CCC(C4)O)C)O)C
InChI: InChI=1S/C27H46O2/c1-17(2)7-6-8-18(3)21-9-10-22-25-23(12-14-27(21,22)5)26(4)13-11-20(28)15-19(26)16-24(25)29/h16-18,20-25,28-29H,6-15H2,1-5H3
Instrument: impact II
Instrument type: LC-ESI-QTOF
Ms type: MS2
Ion mode: POSITIVE
Ionization: ESI
Collision energy: 60
Column name: Acquity CSHC18
Retention time: 1.793 min
Base peak: 367.33590
Precursor m/z: 367.33590
Precursor type: [M-2H2O+H]+
m/z	relative intensity
129.5736	853
143.5891	999
