Mass spectrum: Acetylcholine; ESI-TOF; MS2; CE: 0.6458333;  [M+H]+
Name: Acetylcholine
Class: NA
Formula: [C7H16NO2]+
Exact mass: 146.11756
SMILES: CC(=O)OCC[N+](C)(C)C
InChI: InChI=1S/C7H16NO2/c1-7(9)10-6-5-8(2,3)4/h5-6H2,1-4H3/q+1
Instrument: waters xevo g2 TOF
Instrument type: ESI-TOF
Ms type: MS2
Ion mode: POSITIVE
Ionization: ESI
Collision energy: 0.6458333
Column name: Acquity CSHC18
Retention time: 0.526 min
Base peak: 147.12610
Precursor m/z: 147.12610
Precursor type: [M+H]+
m/z	relative intensity
72.9382	6
87.0447	999
88.0479	45
96.9614	1
104.1074	8
113.9641	108
113.9642	27
146.118	83
147.1215	6
190.1443	21
