Mass spectrum: strobopinin; LC-ESI-ITFT; MS2; CE: 0.3;  [M+H]+
Name: strobopinin
Class: flavanones
Formula: C16H14O4
Exact mass: 270.0892
SMILES: CC1=C(C2=C(C=C1O)OC(CC2=O)C3=CC=CC=C3)O
InChI: InChI=1S/C16H14O4/c1-9-11(17)7-14-15(16(9)19)12(18)8-13(20-14)10-5-3-2-4-6-10/h2-7,13,17,19H,8H2,1H3
Instrument: LTQ-Orbitrap XL hybrid mass spectrometer (Thermo Scientific)
Instrument type: LC-ESI-ITFT
Ms type: MS2
Ion mode: POSITIVE
Ionization: ESI
Collision energy: 0.3
Column name: Acquity CSHC18
Retention time: 12.311 min
Base peak: 271.0959
Precursor m/z: 271.0959
Precursor type: [M+H]+
Precursor intensity: 18929410
m/z	relative intensity
62.7339	18
68.3323	19
73.2894	30
73.5341	19
103.0537	58
131.0486	558
165.0539	37
166.9658	22
167.0334	999
173.0593	151
193.0487	40
215.07	44
229.0851	81
253.0853	21
