Mass spectrum: acteoside; LC-ESI-ITFT; MS2; CE: 0.3;  [M+NH4]+
Name: acteoside
Class: phenylpropanoid glycosides
Formula: C29H36O15
Exact mass: 624.2054
SMILES: CC1C(C(C(C(O1)OC2C(C(OC(C2OC(=O)C=CC3=CC(=C(C=C3)O)O)CO)OCCC4=CC(=C(C=C4)O)O)O)O)O)O
InChI: InChI=1S/C29H36O15/c1-13-22(36)23(37)24(38)29(41-13)44-27-25(39)28(40-9-8-15-3-6-17(32)19(34)11-15)42-20(12-30)26(27)43-21(35)7-4-14-2-5-16(31)18(33)10-14/h2-7,10-11,13,20,22-34,36-39H,8-9,12H2,1H3
Instrument: LTQ-Orbitrap XL hybrid mass spectrometer (Thermo Scientific)
Instrument type: LC-ESI-ITFT
Ms type: MS2
Ion mode: POSITIVE
Ionization: ESI
Collision energy: 0.3
Column name: Acquity CSHC18
Retention time: 5.686 min
Base peak: 642.2366
Precursor m/z: 642.2366
Precursor type: [M+NH4]+
Precursor intensity: 1017447
m/z	relative intensity
166.982	24
191.7295	16
201.8822	13
202.1165	14
235.4542	15
238.3381	16
247.0941	25
253.9541	17
256.0243	17
263.0881	25
273.0743	76
281.2451	20
283.1146	16
286.3731	18
286.3996	15
291.0848	91
301.1257	29
309.096	327
313.7724	21
317.1016	35
317.4735	20
318.0638	17
318.2693	17
324.1293	20
325.0906	999
355.6292	27
375.4851	18
376.4508	18
376.4927	16
384.7229	22
388.9396	23
405.5317	22
415.3922	24
415.447	20
417.1159	46
427.5889	22
432.2862	19
433.3515	21
435.126	211
442.1886	20
443.1317	44
444.9689	20
451.619	22
452.0589	20
453.1365	78
456.8415	23
458.5057	23
461.1426	235
464.5916	23
469.1579	20
469.5505	19
469.5968	19
471.147	813
472.384	20
473.7085	22
479.1555	118
482.1541	17
482.2019	18
503.7819	25
532.6395	19
534.7737	21
535.1678	21
536.1087	19
539.3705	23
541.3473	27
546.0717	24
547.6865	30
553.9399	25
556.9659	24
563.4304	24
567.6691	20
568.8426	21
569.3538	20
571.184	44
574.7688	19
576.6733	29
595.2494	25
607.1957	79
610.3594	20
625.2031	34
638.3298	27
638.4787	26
640.33	25
642.1723	21
