Mass spectrum: L-Hydroxyproline; LC-ESI-QTOF; MS2; CE: 15.00;  [2M-H]-
Name: L-Hydroxyproline
Class: NA
Formula: C5H9NO3
Exact mass: 131.0582
SMILES: C1C(CNC1C(=O)O)O
InChI: InChI=1S/C5H9NO3/c7-3-1-4(5(8)9)6-2-3/h3-4,6-7H,1-2H2,(H,8,9)
Instrument: Bruker MicrOTOF-Q
Instrument type: LC-ESI-QTOF
Ms type: MS2
Ion mode: NEGATIVE
Ionization: ESI
Collision energy: 15.00
Column name: Acquity CSHC18
Retention time: NA
Base peak: 261.1092
Precursor m/z: 261.1092
Precursor type: [2M-H]-
m/z	relative intensity
46.0306	27
48.1692	27
51.1611	27
55.2467	27
59.2807	28
62.9541	27
65.6676	27
69.2139	27
86.83	55
95.56	55
96.48	55
102	55
112.04	248
121	55
124.33	55
127.895	999
129.04	220
130.9484	990
133.125	27
133.71	27
136.4	27
142.85	27
143.57	27
162.85	27
173.45	27
178.98	27
197.52	27
209.47	27
218.47	27
311.9	27
342.69	27
377.02	27
410.59	27
453.51	27
537.34	27
582.66	27
