Mass spectrum: Allocystathionine; ESI-TOF; MS2; CE: 0.6458333;  [M+H]+
Name: Allocystathionine
Class: NA
Formula: C7H14N2O4S
Exact mass: 222.06743
SMILES: NC(CCSCC(N)C(O)=O)C(O)=O
InChI: InChI=1S/C7H14N2O4S/c8-4(6(10)11)1-2-14-3-5(9)7(12)13/h4-5H,1-3,8-9H2,(H,10,11)(H,12,13)
Instrument: waters xevo g2 TOF
Instrument type: ESI-TOF
Ms type: MS2
Ion mode: POSITIVE
Ionization: ESI
Collision energy: 0.6458333
Column name: Acquity CSHC18
Retention time: 0.505 min
Base peak: 223.07543
Precursor m/z: 223.07543
Precursor type: [M+H]+
m/z	relative intensity
56.9441	3
85.9476	1
88.0222	999
89.0246	43
90.0181	45
98.9628	39
101.9646	12
102.0908	3
102.9524	1
106.991	2
113.9646	48
114.9707	2
134.0273	560
135.03	28
142.964	8
143.9581	18
160.0432	2
173.8691	7
200.8593	1
223.0752	69
224.0779	5
231.9965	6
276.9935	6
498.0509	7
551.985	1
