Mass spectrum: HOMOCYSTINE; LC-ESI-QTOF; MS2; CE: 20;  [M-H]-
Name: HOMOCYSTINE
Class: NA
Formula: C8H16N2O4S2
Exact mass: 268.05515
SMILES: NC(CCSSCCC(N)C(O)=O)C(O)=O
InChI: InChI=1S/C8H16N2O4S2/c9-5(7(11)12)1-3-15-16-4-2-6(10)8(13)14/h5-6H,1-4,9-10H2,(H,11,12)(H,13,14)
Instrument: Agilent 6530Â Q-TOF LC/MS
Instrument type: LC-ESI-QTOF
Ms type: MS2
Ion mode: NEGATIVE
Ionization: ESI
Collision energy: 20
Column name: NA
Retention time: 0.200 min
Base peak: 267.04769
Precursor m/z: 267.04769
Precursor type: [M-H]-
Precursor intensity: 122
m/z	relative intensity
44.9996	104
71.0088	114
72.0247	239
88.0307	359
96.9542	363
114.9992	650
132.0212	699
134.0318	999
