Mass spectrum: Nicotinic acid; LC-ESI-ITFT; MS2; CE: 60;  [M+H]+
Name: Nicotinic acid
Class: Organoheterocyclic compounds; Pyridines and derivatives; Pyridinecarboxylic acids and derivatives
Formula: C6H5NO2
Exact mass: 123.03203
SMILES: OC(=O)C1=CN=CC=C1
InChI: InChI=1S/C6H5NO2/c8-6(9)5-2-1-3-7-4-5/h1-4H,(H,8,9)
Instrument: Thermo Scientific Q-Exactive Focus
Instrument type: LC-ESI-ITFT
Ms type: MS2
Ion mode: POSITIVE
Ionization: ESI
Collision energy: 60
Column name: Acquity CSHC18
Retention time: 1.880 min
Base peak: 124.03930
Precursor m/z: 124.03930
Precursor type: [M+H]+
m/z	relative intensity
50.0157	631
51.0235	692
52.0188	999
52.0314	349
53.0028	61
53.0392	211
78.0343	41
79.042	36
80.0499	41
96.0448	99
