Mass spectrum: Propyl gallate; LC-ESI-ITFT; MS2; CE: 10;  [M-H]-
Name: Propyl gallate
Class: Benzenoids; Benzene and substituted derivatives; Benzoic acids and derivatives
Formula: C10H12O5
Exact mass: 212.06847
SMILES: CCCOC(=O)C1=CC(O)=C(O)C(O)=C1
InChI: InChI=1S/C10H12O5/c1-2-3-15-10(14)6-4-7(11)9(13)8(12)5-6/h4-5,11-13H,2-3H2,1H3
Instrument: Thermo Scientific Q-Exactive Focus
Instrument type: LC-ESI-ITFT
Ms type: MS2
Ion mode: NEGATIVE
Ionization: ESI
Collision energy: 10
Column name: Acquity CSHC18
Retention time: 0.360 min
Base peak: 211.06120
Precursor m/z: 211.06120
Precursor type: [M-H]-
m/z	relative intensity
111.0076	1
124.0154	10
125.0233	16
136.987	2
139.0025	1
140.0104	6
168.0055	26
169.0133	62
211.0526	1
211.0607	999
