Mass spectrum: 4-coumaric acid; LC-ESI-ITFT; MS2; CE: 0.3;  [M+H]+
Name: 4-coumaric acid
Class: phenolic acids
Formula: C9H8O3
Exact mass: 164.0473
SMILES: C1=CC(=CC=C1C=CC(=O)O)O
InChI: InChI=1S/C9H8O3/c10-8-4-1-7(2-5-8)3-6-9(11)12/h1-6,10H,(H,11,12)
Instrument: LTQ-Orbitrap XL hybrid mass spectrometer (Thermo Scientific)
Instrument type: LC-ESI-ITFT
Ms type: MS2
Ion mode: POSITIVE
Ionization: ESI
Collision energy: 0.3
Column name: Acquity CSHC18
Retention time: 7.010 min
Base peak: 165.0549
Precursor m/z: 165.0549
Precursor type: [M+H]+
Precursor intensity: 22288040
m/z	relative intensity
58.4019	1
58.4193	1
61.727	1
82.1958	1
84.5514	1
86.4334	1
103.1739	1
112.306	1
115.9128	1
117.0067	1
119.0492	5
132.3577	1
146.2722	3
146.5295	5
146.6316	2
147.0235	2
147.0275	3
147.0285	2
147.0301	3
147.0315	3
147.0325	3
147.0343	6
147.0369	9
147.0394	6
147.0406	5
147.0444	999
147.0486	4
147.0505	7
147.0531	7
147.0557	4
147.0584	3
147.0595	2
147.0611	2
147.0622	2
147.0637	2
147.065	1
147.4591	4
147.5624	9
147.8231	7
148.0828	2
161.1914	2
161.208	2
165.0551	35
