Mass spectrum: D(+)-Galacturonic acid; LC-ESI-QTOF; MS2; CE: 15.00;  [M-H]-
Name: D(+)-Galacturonic acid
Class: NA
Formula: C6H10O7
Exact mass: 194.0427
SMILES: C(=O)C(C(C(C(C(=O)O)O)O)O)O
InChI: InChI=1S/C6H10O7/c7-1-2(8)3(9)4(10)5(11)6(12)13/h1-5,8-11H,(H,12,13)
Instrument: Bruker MicrOTOF-Q
Instrument type: LC-ESI-QTOF
Ms type: MS2
Ion mode: NEGATIVE
Ionization: ESI
Collision energy: 15.00
Column name: Acquity CSHC18
Retention time: NA
Base peak: 193.0354
Precursor m/z: 193.0354
Precursor type: [M-H]-
m/z	relative intensity
49.9349	365
64.3368	281
74.2511	337
79.3639	281
113.0211	999
115.0046	562
127.1095	281
133.0291	464
197.9352	379
205.2392	365
234.9521	393
244.2429	281
323.2946	379
338.4412	295
338.9726	323
346.8726	295
360.1344	309
383.2364	534
422.7962	281
434.1843	506
521.7718	281
541.3135	379
611.1643	422
612.2755	295
668.2468	309
691.1269	520
788.5662	351
