Mass spectrum: 4-hydroxyphenylacetic acid; LC-ESI-QTOF; MS2; CE: 15.00;  [M-H]-
Name: 4-hydroxyphenylacetic acid
Class: NA
Formula: C8H8O3
Exact mass: 152.0473
SMILES: C1=CC(=CC=C1CC(=O)O)O
InChI: InChI=1S/C8H8O3/c9-7-3-1-6(2-4-7)5-8(10)11/h1-4,9H,5H2,(H,10,11)
Instrument: Bruker MicrOTOF-Q
Instrument type: LC-ESI-QTOF
Ms type: MS2
Ion mode: NEGATIVE
Ionization: ESI
Collision energy: 15.00
Column name: Acquity CSHC18
Retention time: NA
Base peak: 151.0401
Precursor m/z: 151.0401
Precursor type: [M-H]-
m/z	relative intensity
50.4868	26
53.8146	24
58.3716	29
60.4347	20
60.6098	45
64.5256	22
66.1056	20
67.4401	30
69.858	49
76.0179	37
81.3774	26
88.6487	20
93.0331	31
98.4542	31
103.5896	21
104.9535	22
105.0315	32
106.0458	72
106.6737	27
107.052	999
108.0533	97
111.4259	35
144.6254	23
156.3038	26
187.5686	24
205.834	23
232.7017	22
296.137	37
321.5866	19
347.9212	22
366.2844	24
393.0747	25
407.6191	31
412.7327	23
427.9715	25
467.2032	22
512.9385	24
584.21	28
589.6805	26
616.021	20
667.3179	30
670.9974	23
747.3059	19
765.9714	18
779.2146	24
876.1555	22
900.1878	26
982.0796	19
