Mass spectrum: Norharman; LC-ESI-QTOF; MS2; CE: 15;  [M-H]-
Name: Norharman
Class: NA
Formula: C11H8N2
Exact mass: 168.0687
SMILES: C1=CC=C2C(=C1)C3=C(N2)C=NC=C3
InChI: InChI=1S/C11H8N2/c1-2-4-10-8(3-1)9-5-6-12-7-11(9)13-10/h1-7,13H
Instrument: Bruker MicrOTOF-Q
Instrument type: LC-ESI-QTOF
Ms type: MS2
Ion mode: NEGATIVE
Ionization: ESI
Collision energy: 15
Column name: Acquity CSHC18
Retention time: NA
Base peak: 167.0615
Precursor m/z: 167.0615
Precursor type: [M-H]-
m/z	relative intensity
45.7119	69
47.5681	61
51.5667	92
52.3959	55
55.162	66
56.0783	53
57.5855	57
63.5737	40
65.5	46
65.9343	68
67.6793	48
68.708	69
70.3283	94
71.7853	57
73.2536	59
75.7828	49
76.6063	57
77.2186	37
81.4866	48
82.7207	59
84.3653	53
85.1745	75
86.9724	46
91.0269	46
93.4194	68
93.9562	56
94.6469	51
95.4708	53
97.382	49
98.3826	74
100.5506	47
104.9227	83
107.0382	83
107.5667	53
108.3508	77
109.3618	46
112.341	56
113.0697	48
115.5595	70
116.0489	175
116.6762	57
118.4232	44
119.556	79
120.6459	62
121.9062	77
122.8429	53
126.8352	64
129.4307	70
133.5439	48
134.3558	44
138.9498	42
140.0857	346
141.0139	87
142.0609	79
146.2681	55
149.965	69
153.0296	62
153.5801	114
154.2185	55
156.8223	59
158.7274	51
162.481	66
164.8712	57
167.2495	999
169.0717	94
174.2361	40
220.314	70
241.6075	77
249.7	51
253.9253	37
411.9085	37
426.9232	38
523.3013	37
566.1466	42
581.8987	49
590.1994	70
612.1471	51
663.1577	55
696.9881	42
709.5994	38
742.1017	38
742.5045	38
959.3165	51
962.7802	42
