Mass spectrum: CDP-ETHANOLAMINE; LC-ESI-QTOF; MS2; CE: 40;  [M+H]+
Name: CDP-ETHANOLAMINE
Class: NA
Formula: C11H20N4O11P2
Exact mass: 446.06038
SMILES: NCCOP(O)(=O)OP(O)(=O)OC[C@H]1O[C@H]([C@H](O)[C@@H]1O)N1C=CC(N)=NC1=O
InChI: InChI=1S/C11H20N4O11P2/c12-2-4-23-27(19,20)26-28(21,22)24-5-6-8(16)9(17)10(25-6)15-3-1-7(13)14-11(15)18/h1,3,6,8-10,16-17H,2,4-5,12H2,(H,19,20)(H,21,22)(H2,13,14,18)/t6-,8-,9-,10-/m1/s1
Instrument: Agilent 6530Â Q-TOF LC/MS
Instrument type: LC-ESI-QTOF
Ms type: MS2
Ion mode: POSITIVE
Ionization: ESI
Collision energy: 40
Column name: NA
Retention time: 0.200 min
Base peak: 447.07307
Precursor m/z: 447.07307
Precursor type: [M+H]+
Precursor intensity: 180.5
m/z	relative intensity
41.0339	32
41.0376	33
41.0412	28
69.0262	29
69.0309	37
69.0357	44
69.0404	57
69.0452	64
69.05	57
69.0547	43
69.0595	31
69.0643	27
73.0446	25
97.014	25
97.0196	77
97.0252	115
97.0309	113
97.0365	96
97.0422	79
97.0478	61
97.0535	47
97.0591	34
112.0332	229
112.0393	702
112.0454	999
112.0514	964
112.0575	802
112.0636	605
112.0696	453
112.0757	352
112.0818	280
112.0878	234
112.0939	169
112.1	117
112.106	90
112.1121	66
112.1182	53
112.1242	39
112.1303	31
124.0084	36
124.0148	40
124.0212	35
124.0275	27
