Mass spectrum: Isopimpinellin; LC-ESI-QTOF; MS2; CE: 35.00;  [M+H]+
Name: Isopimpinellin
Class: NA
Formula: C13H10O5
Exact mass: 246.0528
SMILES: COC1=C2C=COC2=C(C3=C1C=CC(=O)O3)OC
InChI: InChI=1S/C13H10O5/c1-15-10-7-3-4-9(14)18-12(7)13(16-2)11-8(10)5-6-17-11/h3-6H,1-2H3
Instrument: Bruker MicrOTOF-Q
Instrument type: LC-ESI-QTOF
Ms type: MS2
Ion mode: POSITIVE
Ionization: ESI
Collision energy: 35.00
Column name: Acquity CSHC18
Retention time: NA
Base peak: 247.0607
Precursor m/z: 247.0607
Precursor type: [M+H]+
m/z	relative intensity
105.0315	6
119.0125	2
121.0245	1
123.0063	12
133.0273	161
134.0301	15
135.0067	28
136.0094	2
138.9995	1
143.0112	66
144.0148	7
145.0286	13
146.034	3
147.0054	8
148.0121	1
159.0116	2
160.0171	1
161.0227	528
161.1981	1
162.0268	58
163.0028	143
164.0055	11
165.007	2
171.0074	209
172.0103	24
173.0204	11
175.0368	2
187.0022	45
188.0071	6
189.0181	949
189.4913	1
190.0212	107
191.0242	10
199.0042	1
203.0319	2
216.8854	2
217.0129	999
217.2868	2
217.3778	1
218.0164	118
219.0184	17
220.019	1
232.0433	1
235.0226	2
