Mass spectrum: 3-Sulfinoalanine; LC-ESI-ITFT; MS2; CE: 60;  [M-H]-
Name: 3-Sulfinoalanine
Class: Organic acids and derivatives; Carboxylic acids and derivatives; Amino acids, peptides, and analogues
Formula: C3H7NO4S
Exact mass: 153.00958
SMILES: C([C@@H](C(=O)O)N)S(=O)=O
InChI: InChI=1S/C3H7NO4S/c4-2(3(5)6)1-9(7)8/h2,9H,1,4H2,(H,5,6)/t2-/m0/s1
Instrument: Thermo Scientific Q-Exactive Focus
Instrument type: LC-ESI-ITFT
Ms type: MS2
Ion mode: NEGATIVE
Ionization: ESI
Collision energy: 60
Column name: Acquity CSHC18
Retention time: 1.767 min
Base peak: 152.00230
Precursor m/z: 152.00230
Precursor type: [M-H]-
m/z	relative intensity
63.9612	999
73.145	24
73.7475	23
81.5217	26
82.66	24
85.5804	23
110.3415	27
117.0797	24
134.4406	25
134.8042	31
