Mass spectrum: benzyl (2aS,4S,6aS,6bS,8aS,8bR,9S,12R,14aR,15aS,15bR)-4-acetoxy-6a,8a,9,12-tetramethyl-2,2a,3,4,5,6,6a,6b,7,8,8a,8b,9,11,12,13,14a,15,15a,15b-icosahydronaphtho[2'',1'':4',5']indeno[1',2':5,6]pyrano[3,2-b]pyridine-10(1H)-carboxylate; APCI-ITFT; MS2; CE: 35 CID;  [M+H]+
Name: benzyl (2aS,4S,6aS,6bS,8aS,8bR,9S,12R,14aR,15aS,15bR)-4-acetoxy-6a,8a,9,12-tetramethyl-2,2a,3,4,5,6,6a,6b,7,8,8a,8b,9,11,12,13,14a,15,15a,15b-icosahydronaphtho[2'',1'':4',5']indeno[1',2':5,6]pyrano[3,2-b]pyridine-10(1H)-carboxylate
Class: NA
Formula: C37H51NO5
Exact mass: 589.37672
SMILES: C[C@@]12[C@](CC[C@]3([H])[C@]2([H])CC[C@@]4(C)[C@@]3([H])C[C@@]([H])(OC(C[C@@H](C)CN5C(OCC6=CC=CC=C6)=O)=C5[C@H]7C)[C@@]47[H])([H])C[C@@H](OC(C)=O)CC1
InChI: InChI=1S/C37H51NO5/c1-22-17-32-34(38(20-22)35(40)41-21-25-9-7-6-8-10-25)23(2)33-31(43-32)19-30-28-12-11-26-18-27(42-24(3)39)13-15-36(26,4)29(28)14-16-37(30,33)5/h6-10,22-23,26-31,33H,11-21H2,1-5H3/t22-,23+,26+,27+,28-,29+,30+,31-,33+,36+,37+/m1/s1
Instrument: Orbitrap Elite
Instrument type: APCI-ITFT
Ms type: MS2
Ion mode: POSITIVE
Ionization: APCI
Collision energy: 35 CID
Column name: Acquity CSHC18
Retention time: 0.191 min
Base peak: 590.38390
Precursor m/z: 590.38390
Precursor type: [M+H]+
Precursor intensity: 391608800
m/z	relative intensity
174.1279	19
186.1292	1
188.1459	1
202.1229	8
204.1388	11
208.0984	1
214.1591	1
218.1179	5
230.1182	1
248.1307	1
253.195	1
255.2115	6
258.1497	1
274.1438	1
281.2279	1
283.2437	6
299.238	1
300.1601	2
314.1735	1
315.233	12
316.2365	1
331.2266	6
341.2454	2
343.2616	9
357.2583	15
376.3031	1
378.3173	3
394.313	2
396.3237	39
417.2782	46
420.2911	1
422.3032	4
426.3395	17
436.3235	2
438.34	5
439.3167	1
440.353	25
449.306	2
454.3324	183
455.3371	39
463.3189	2
464.3101	1
468.3597	3
480.3121	3
482.3267	60
486.3748	12
498.3257	58
499.3268	52
512.3343	2
528.3845	26
530.3626	5
546.2702	6
546.3901	999
572.3748	33
590.3333	1
