Mass spectrum: Physostigmine, Eserine; LC-ESI-QTOF; MS2; CE: 35.00;  [M+H]+
Name: Physostigmine, Eserine
Class: NA
Formula: C15H21N3O2
Exact mass: 275.1634
SMILES: CC12CCN(C1N(C3=C2C=C(C=C3)OC(=O)NC)C)C
InChI: InChI=1S/C15H21N3O2/c1-15-7-8-17(3)13(15)18(4)12-6-5-10(9-11(12)15)20-14(19)16-2/h5-6,9,13H,7-8H2,1-4H3,(H,16,19)
Instrument: Bruker MicrOTOF-Q
Instrument type: LC-ESI-QTOF
Ms type: MS2
Ion mode: POSITIVE
Ionization: ESI
Collision energy: 35.00
Column name: Acquity CSHC18
Retention time: NA
Base peak: 276.1728
Precursor m/z: 276.1728
Precursor type: [M+H]+
m/z	relative intensity
134.0948	36
144.0786	43
146.0587	46
147.0665	66
148.0697	95
160.075	112
161.0823	135
162.0903	151
163.0933	285
172.075	390
173.0826	426
174.0868	557
176.1061	583
188.1062	999
