Mass spectrum: 3-Hydroxytyramine; LC-ESI-QTOF; MS2; CE: 15.00;  [M-NH3+H]+
Name: 3-Hydroxytyramine
Class: NA
Formula: C8H11NO2
Exact mass: 153.0790
SMILES: C1=CC(=C(C=C1CCN)O)O
InChI: InChI=1S/C8H11NO2/c9-4-3-6-1-2-7(10)8(11)5-6/h1-2,5,10-11H,3-4,9H2
Instrument: Bruker MicrOTOF-Q
Instrument type: LC-ESI-QTOF
Ms type: MS2
Ion mode: POSITIVE
Ionization: ESI
Collision energy: 15.00
Column name: Acquity CSHC18
Retention time: NA
Base peak: 137.0597
Precursor m/z: 137.0597
Precursor type: [M-NH3+H]+
m/z	relative intensity
119.0469	608
119.1742	6
120.0491	65
136.065	9
136.8164	5
136.9722	6
137.0582	999
138.0629	59
138.8003	10
