Mass spectrum: O-ACETYLSERINE; LC-ESI-QFT; MS2; CE: 30eV;  [M+H]+
Name: O-ACETYLSERINE
Class: NA
Formula: C5H9NO4
Exact mass: 147.05316
SMILES: CC(=O)OC[C@H](N)C(O)=O
InChI: InChI=1S/C5H9NO4/c1-3(7)10-2-4(6)5(8)9/h4H,2,6H2,1H3,(H,8,9)/t4-/m0/s1
Instrument: Q-Exactive Orbitrap, Thermo Scientfic; Ultimate 3000 HPLC, Thermo Scientfic
Instrument type: LC-ESI-QFT
Ms type: MS2
Ion mode: POSITIVE
Ionization: ESI
Collision energy: 30eV
Column name: Acquity CSHC18
Retention time: 0.594 min
Base peak: 148.0604
Precursor m/z: 148.0604
Precursor type: [M+H]+
Precursor intensity: 173
m/z	relative intensity
60.0452	299
61.0486	1
62.9364	1
70.0295	36
71.9301	4
84.0451	26
84.0817	2
84.7665	1
86.6381	1
88.04	999
89.0371	1
89.0434	24
89.9406	20
90.9484	1
96.9959	2
102.0556	68
103.0591	1
106.0505	765
106.9499	1
106.9671	4
107.0477	1
107.0538	17
107.9066	4
107.951	22
113.9641	1
120.9655	13
121.0289	7
121.9666	8
121.9733	12
123.965	2
124.9776	8
125.9171	1
125.9614	42
130.0503	68
130.0868	1
130.9624	1
130.9668	34
131.0343	45
131.0534	1
131.9747	1
142.6375	1
143.9273	1
148.0402	1
148.0608	64
148.0972	5
148.9774	93
149.0237	65
166.9884	1
