Mass spectrum: (+)-Afzelechin; LC-ESI-QTOF; MS2; CE: 20-40eV;  [M+H]+
Name: (+)-Afzelechin
Class: flavonoid
Formula: C15H14O5
Exact mass: 274.0841
SMILES: C=1C=C(C=CC1C2(C(CC3=C(C=C(C=C3O2)O)O)(O)[H])[H])O
InChI: InChI=1S/C15H14O5/c16-9-3-1-8(2-4-9)15-13(19)7-11-12(18)5-10(17)6-14(11)20-15/h1-6,13,15-19H,7H2
Instrument: Impact II, Bruker; Dionex 3000, Thermo Scientific
Instrument type: LC-ESI-QTOF
Ms type: MS2
Ion mode: POSITIVE
Ionization: ESI
Collision energy: 20-40eV
Column name: Acquity CSHC18
Retention time: 5.281 min
Base peak: 275.0911
Precursor m/z: 275.0911
Precursor type: [M+H]+
Precursor intensity: 7233.25
m/z	relative intensity
95.0496	16
103.0525	16
111.0427	53
121.0274	250
122.0302	28
131.0476	58
139.0382	999
140.0415	16
149.0583	155
150.0636	30
163.073	18
175.8994	19
234.9994	17
