Mass spectrum: GLUCONATE; LC-ESI-QTOF; MS2; CE: 40;  [M-H]-
Name: GLUCONATE
Class: NA
Formula: C6H12O7
Exact mass: 196.05830
SMILES: OC[C@@H](O)[C@@H](O)[C@H](O)[C@@H](O)C(O)=O
InChI: InChI=1S/C6H12O7/c7-1-2(8)3(9)4(10)5(11)6(12)13/h2-5,7-11H,1H2,(H,12,13)/t2-,3-,4+,5-/m1/s1
Instrument: Agilent 6530Â Q-TOF LC/MS
Instrument type: LC-ESI-QTOF
Ms type: MS2
Ion mode: NEGATIVE
Ionization: ESI
Collision energy: 40
Column name: NA
Retention time: 0.200 min
Base peak: 195.05426
Precursor m/z: 195.05426
Precursor type: [M-H]-
Precursor intensity: 110
m/z	relative intensity
41.0153	127
43.0244	211
45.0045	244
47.0193	287
55.0275	309
57.0168	318
59.0283	336
71.0199	433
72.9955	622
75.0256	986
84.0276	999
