Mass spectrum: 18:1(2R-OH) Ceramide; ESI-TOF; MS2; CE: 0.6458333;  [M+H]+
Name: 18:1(2R-OH) Ceramide
Class: NA
Formula: C36H69NO4
Exact mass: 579.52266
SMILES: [H]OC([H])([H])C([H])(N([H])C(=O)C([H])(O[H])C([H])([H])C([H])([H])C([H])([H])C([H])([H])C([H])([H])C([H])([H])C([H])=C([H])C([H])([H])C([H])([H])C([H])([H])C([H])([H])C([H])([H])C([H])([H])C([H])([H])C([H])([H])[H])C([H])(O[H])C([H])=C([H])C([H])([H])C([H])([H])C([H])([H])C([H])([H])C([H])([H])C([H])([H])C([H])([H])C([H])([H])C([H])([H])C([H])([H])C([H])([H])C([H])([H])C([H])([H])[H]
InChI: InChI=1S/C36H69NO4/c1-3-5-7-9-11-13-15-17-19-21-23-25-27-29-31-35(40)36(41)37-33(32-38)34(39)30-28-26-24-22-20-18-16-14-12-10-8-6-4-2/h17,19,28,30,33-35,38-40H,3-16,18,20-27,29,31-32H2,1-2H3,(H,37,41)
Instrument: waters xevo g2 TOF
Instrument type: ESI-TOF
Ms type: MS2
Ion mode: POSITIVE
Ionization: ESI
Collision energy: 0.6458333
Column name: Acquity CSHC18
Retention time: 10.813 min
Base peak: 580.53066
Precursor m/z: 580.53066
Precursor type: [M+H]+
m/z	relative intensity
73.0297	10
95.0866	9
117.0176	7
121.1019	10
126.9535	14
135.1169	11
145.0141	57
211.2063	12
214.9187	8
216.9846	82
252.2692	230
253.2711	50
264.2695	999
265.2725	216
282.2801	119
283.2831	18
285.7328	20
291.2007	13
298.2736	12
330.1232	13
331.2134	7
362.237	40
363.2405	9
532.5068	101
533.5123	37
544.5086	133
545.514	106
546.5176	14
553.3696	12
562.5078	224
563.5236	164
564.5274	21
565.5279	2
566.9455	31
567.4419	9
567.952	15
580.5296	43
581.5341	20
