Mass spectrum: C12 Sphingosyl PE (d17:1/12:0); ESI-TOF; MS2; CE: 0.6458333;  [M+H]+
Name: C12 Sphingosyl PE (d17:1/12:0)
Class: NA
Formula: C31H63N2O6P
Exact mass: 590.44237
SMILES: [H]OC([H])(C([H])=C([H])C([H])([H])C([H])([H])C([H])([H])C([H])([H])C([H])([H])C([H])([H])C([H])([H])C([H])([H])C([H])([H])C([H])([H])C([H])([H])C([H])([H])[H])C([H])(N([H])C(=O)C([H])([H])C([H])([H])C([H])([H])C([H])([H])C([H])([H])C([H])([H])C([H])([H])C([H])([H])C([H])([H])C([H])([H])C([H])([H])[H])C([H])([H])OP(=O)([O-])OC([H])([H])C([H])([H])[N+]([H])([H])[H]
InChI: InChI=1S/C31H63N2O6P/c1-3-5-7-9-11-13-14-15-17-18-20-22-24-30(34)29(28-39-40(36,37)38-27-26-32)33-31(35)25-23-21-19-16-12-10-8-6-4-2/h22,24,29-30,34H,3-21,23,25-28,32H2,1-2H3,(H,33,35)(H,36,37)
Instrument: waters xevo g2 TOF
Instrument type: ESI-TOF
Ms type: MS2
Ion mode: POSITIVE
Ionization: ESI
Collision energy: 0.6458333
Column name: Acquity CSHC18
Retention time: 9.475 min
Base peak: 591.45037
Precursor m/z: 591.45037
Precursor type: [M+H]+
m/z	relative intensity
81.0699	5
83.0861	11
93.071	10
95.0863	7
97.1016	8
107.0854	7
109.1009	5
111.1177	4
121.1021	17
135.1175	14
136.9318	40
142.0268	7
161.9643	9
164.0088	9
200.2013	17
224.2015	139
225.2053	20
233.2264	6
238.2537	5
250.2543	351
251.2558	75
362.1368	81
363.1442	7
386.1772	39
432.4205	604
433.4234	196
434.4256	30
450.4315	999
451.4343	335
452.438	56
453.4399	5
472.4152	35
473.4172	11
530.3961	50
531.3992	14
568.3439	118
569.3476	19
570.3863	15
573.441	78
574.4428	26
584.3147	4
586.356	147
587.3593	21
588.366	8
588.9026	8
589.3958	10
591.4507	108
592.4541	38
