Mass spectrum: D-Tagatose; ESI-TOF; MS2; CE: 6.0000000;  [M+H]+
Name: D-Tagatose
Class: NA
Formula: C6H12O6
Exact mass: 180.06339
SMILES: OCC(O)C(O)C(O)C(=O)CO
InChI: InChI=1S/C6H12O6/c7-1-3(9)5(11)6(12)4(10)2-8/h3,5-9,11-12H,1-2H2
Instrument: waters xevo g2 TOF
Instrument type: ESI-TOF
Ms type: MS2
Ion mode: POSITIVE
Ionization: ESI
Collision energy: 6.0000000
Column name: Acquity CSHC18
Retention time: 0.556 min
Base peak: 181.07139
Precursor m/z: 181.07139
Precursor type: [M+H]+
m/z	relative intensity
85.0283	60
145.0493	57
168.9599	2
178.1237	29
184.9861	306
186.9687	2
187.0783	68
203.053	999
204.0558	60
216.9796	2
243.9661	57
261.9764	243
280.9958	102
294.0027	32
303.0033	43
324.0142	304
325.0196	64
383.1172	50
396.0337	58
414.0474	146
415.0512	28
