Mass spectrum: Prostaglandin F2-alpha dimethyl amine; ESI-TOF; MS2; CE: 6.0000000;  [M+H]+
Name: Prostaglandin F2-alpha dimethyl amine
Class: NA
Formula: C22H41NO3
Exact mass: 367.30864
SMILES: O[C@@H]1C(C/C=C\CCCCN(C)C)[C@@H](/C=C/[C@@H](O)CCCCC)[C@H](O)C1
InChI: InChI=1S/C22H41NO3/c1-4-5-9-12-18(24)14-15-20-19(21(25)17-22(20)26)13-10-7-6-8-11-16-23(2)3/h7,10,14-15,18-22,24-26H,4-6,8-9,11-13,16-17H2,1-3H3/b10-7-,15-14+/t18-,19?,20+,21-,22+/m0/s1
Instrument: waters xevo g2 TOF
Instrument type: ESI-TOF
Ms type: MS2
Ion mode: POSITIVE
Ionization: ESI
Collision energy: 6.0000000
Column name: Acquity CSHC18
Retention time: 2.515 min
Base peak: 368.31664
Precursor m/z: 368.31664
Precursor type: [M+H]+
m/z	relative intensity
96.9625	5
195.0642	4
332.2957	1
350.3062	71
351.3095	2
352.3124	1
368.3169	999
369.32	256
370.3235	3
371.3299	2
390.2967	1
