Mass spectrum: Creatinine; LC-ESI-ITFT; MS2; CE: 30;  [M+H]+
Name: Creatinine
Class: Organic acids and derivatives; Carboxylic acids and derivatives; Amino acids, peptides, and analogues
Formula: C4H7N3O
Exact mass: 113.05891
SMILES: CN1CC(=O)NC1=N
InChI: InChI=1S/C4H7N3O/c1-7-2-3(8)6-4(7)5/h2H2,1H3,(H2,5,6,8)
Instrument: Thermo Scientific Q-Exactive Focus
Instrument type: LC-ESI-ITFT
Ms type: MS2
Ion mode: POSITIVE
Ionization: ESI
Collision energy: 30
Column name: Acquity CSHC18
Retention time: 0.710 min
Base peak: 114.06619
Precursor m/z: 114.06619
Precursor type: [M+H]+
m/z	relative intensity
58.9984	132
59.5217	999
68.5269	647
68.9441	107
71.0297	183
92.5228	124
93.0664	108
99.1722	111
124.7557	111
132.3406	110
