Mass spectrum: PARAXANTHINE; LC-ESI-QFT; MS2; CE: 30eV;  [M+H]+
Name: PARAXANTHINE
Class: NA
Formula: C7H8N4O2
Exact mass: 180.06473
SMILES: CN1C=NC2=C1C(=O)N(C)C(=O)N2
InChI: InChI=1S/C7H8N4O2/c1-10-3-8-5-4(10)6(12)11(2)7(13)9-5/h3H,1-2H3,(H,9,13)
Instrument: Q-Exactive Orbitrap, Thermo Scientfic; Ultimate 3000 HPLC, Thermo Scientfic
Instrument type: LC-ESI-QFT
Ms type: MS2
Ion mode: POSITIVE
Ionization: ESI
Collision energy: 30eV
Column name: Acquity CSHC18
Retention time: 5.080 min
Base peak: 181.0720
Precursor m/z: 181.0720
Precursor type: [M+H]+
Precursor intensity: 196
m/z	relative intensity
51.6373	4
51.9093	4
55.0299	6
59.4759	4
64.7022	5
69.0453	6
69.8102	3
70.2881	5
77.0705	3
79.6199	3
96.0562	18
106.3075	4
108.1218	4
124.0509	999
124.3195	4
125.0542	7
135.8491	4
139.9827	5
142.0614	536
143.0648	5
144.5801	4
182.0692	31
182.0758	202
