Mass spectrum: gamma-Aminobutyric acid; LC-ESI-ITFT; MS2; CE: 10;  [M+H]+
Name: gamma-Aminobutyric acid
Class: Organic acids and derivatives; Carboxylic acids and derivatives; Amino acids, peptides, and analogues
Formula: C4H9NO2
Exact mass: 103.06333
SMILES: NCCCC(O)=O
InChI: InChI=1S/C4H9NO2/c5-3-1-2-4(6)7/h1-3,5H2,(H,6,7)
Instrument: Thermo Scientific Q-Exactive Focus
Instrument type: LC-ESI-ITFT
Ms type: MS2
Ion mode: POSITIVE
Ionization: ESI
Collision energy: 10
Column name: Acquity CSHC18
Retention time: 0.348 min
Base peak: 104.07061
Precursor m/z: 104.07061
Precursor type: [M+H]+
m/z	relative intensity
68.05	20
69.034	209
77.3767	1
85.4794	1
86.0592	2
86.0605	251
87.0445	999
104.0709	57
108.1643	1
123.0664	1
