Mass spectrum: Indole; LC-ESI-ITFT; MS2; CE: 100;  [M+H]+
Name: Indole
Class: Organoheterocyclic compounds; Indoles and derivatives; Indoles
Formula: C8H7N
Exact mass: 117.05785
SMILES: N1C=CC2=C1C=CC=C2
InChI: InChI=1S/C8H7N/c1-2-4-8-7(3-1)5-6-9-8/h1-6,9H
Instrument: Thermo Scientific Q-Exactive Focus
Instrument type: LC-ESI-ITFT
Ms type: MS2
Ion mode: POSITIVE
Ionization: ESI
Collision energy: 100
Column name: Acquity CSHC18
Retention time: 1.781 min
Base peak: 118.06513
Precursor m/z: 118.06513
Precursor type: [M+H]+
m/z	relative intensity
50.0157	516
53.0027	999
53.998	46
55.0184	40
61.0078	622
62.0156	505
63.0234	168
65.0027	172
73.4595	23
132.8759	24
