Mass spectrum: Scopoletin; LC-ESI-QTOF; MS2; CE: 15.00;  [M+H]+
Name: Scopoletin
Class: NA
Formula: C10H8O4
Exact mass: 192.0423
SMILES: COC1=C(C=C2C(=C1)C=CC(=O)O2)O
InChI: InChI=1S/C10H8O4/c1-13-9-4-6-2-3-10(12)14-8(6)5-7(9)11/h2-5,11H,1H3
Instrument: Bruker MicrOTOF-Q
Instrument type: LC-ESI-QTOF
Ms type: MS2
Ion mode: POSITIVE
Ionization: ESI
Collision energy: 15.00
Column name: Acquity CSHC18
Retention time: NA
Base peak: 193.0495
Precursor m/z: 193.0495
Precursor type: [M+H]+
m/z	relative intensity
133.0267	28
134.0299	29
137.058	41
149.0578	49
165.0536	83
178.0252	105
179.0286	320
193.0485	548
194.0518	999
