Mass spectrum: 11-hydroxy ferruginol; ESI-QTOF; MS2; CE: -55V;  [M-H]-
Name: 11-hydroxy ferruginol
Class: phenolic diterpene
Formula: C20H30O2
Exact mass: 302.2246
SMILES: C=12[C@]3(C)[C@@]([H])(CCC1C=C(C(=C2O)O)C(C)C)C(CCC3)(C)C
InChI: InChI=1S/C20H30O2/c1-12(2)14-11-13-7-8-15-19(3,4)9-6-10-20(15,5)16(13)18(22)17(14)21/h11-12,15,21-22H,6-10H2,1-5H3/t15-,20-/m0/s1
Instrument: TripleToF 5600, Sciex
Instrument type: ESI-QTOF
Ms type: MS2
Ion mode: NEGATIVE
Ionization: ESI
Collision energy: -55V
Column name: Acquity CSHC18
Retention time: 16.942 min
Base peak: 301.2180
Precursor m/z: 301.2180
Precursor type: [M-H]-
Precursor intensity: 4485683
m/z	relative intensity
143.0696	39
198.092	70
211.0941	78
253.1221	84
271.1655	127
303.2569	999
