Mass spectrum: CITICOLINE; LC-ESI-QFT; MS2; CE: 30eV;  [M-H]-
Name: CITICOLINE
Class: NA
Formula: C14H26N4O11P2
Exact mass: 488.10733
SMILES: C[N+](C)(C)CCOP([O-])(=O)OP(O)(=O)OC[C@H]1O[C@H]([C@H](O)[C@@H]1O)N1C=CC(N)=NC1=O
InChI: InChI=1S/C14H26N4O11P2/c1-18(2,3)6-7-26-30(22,23)29-31(24,25)27-8-9-11(19)12(20)13(28-9)17-5-4-10(15)16-14(17)21/h4-5,9,11-13,19-20H,6-8H2,1-3H3,(H3-,15,16,21,22,23,24,25)/t9-,11-,12-,13-/m1/s1
Instrument: Q-Exactive Orbitrap, Thermo Scientfic; Ultimate 3000 HPLC, Thermo Scientfic
Instrument type: LC-ESI-QFT
Ms type: MS2
Ion mode: NEGATIVE
Ionization: ESI
Collision energy: 30eV
Column name: Acquity CSHC18
Retention time: 0.633 min
Base peak: 487.1000
Precursor m/z: 487.1000
Precursor type: [M-H]-
Precursor intensity: 168
m/z	relative intensity
50.4719	12
51.3698	13
52.7889	12
52.7904	14
63.527	15
72.7395	18
78.9573	488
96.9678	230
110.0342	293
110.9835	95
117.3189	14
122.9835	195
123.1482	14
137.1377	13
146.937	20
150.9787	36
154.5658	19
156.4314	19
158.9237	31
161.3184	20
165.943	18
184.9399	17
189.9684	16
190.9268	16
192.9896	92
195.4312	17
200.6651	15
215.3037	16
222.9474	15
223.2556	14
223.8761	16
238.2049	15
272.2732	18
272.9566	24
282.6881	16
304.0336	999
305.037	67
323.4789	16
336.0605	73
383.9998	24
399.9522	16
428.0269	117
488.8383	17
