Mass spectrum: Barbituric acid; LC-ESI-ITFT; MS2; CE: 40;  [M-H]-
Name: Barbituric acid
Class: Organoheterocyclic compounds; Diazines; Pyrimidines and pyrimidine derivatives
Formula: C4H4N2O3
Exact mass: 128.02219
SMILES: OC1=NC(=O)N=C(O)C1
InChI: InChI=1S/C4H4N2O3/c7-2-1-3(8)6-4(9)5-2/h1H2,(H2,5,6,7,8,9)
Instrument: Thermo Scientific Q-Exactive Focus
Instrument type: LC-ESI-ITFT
Ms type: MS2
Ion mode: NEGATIVE
Ionization: ESI
Collision energy: 40
Column name: Acquity CSHC18
Retention time: 1.480 min
Base peak: 127.01492
Precursor m/z: 127.01492
Precursor type: [M-H]-
m/z	relative intensity
66.4035	844
72.573	788
84.9105	852
85.1786	816
86.9542	790
92.5139	785
116.5812	999
124.746	763
134.1618	846
135.8607	783
