Mass spectrum: Diacetyl-3beta-amino-22,26-epimino-16beta,23-oxido-5alpha-cholest-22-en; APCI-ITFT; MS2; CE: 35 CID;  [M+H]+
Name: Diacetyl-3beta-amino-22,26-epimino-16beta,23-oxido-5alpha-cholest-22-en
Class: NA
Formula: C31H48N2O3
Exact mass: 496.36649
SMILES: C[C@H](CN1C(C)=O)CC2=C1[C@@H](C)[C@@]3([H])[C@H](O2)C[C@@]4([H])[C@]5([H])CC[C@@]6([H])C[C@@H](NC(C)=O)CC[C@]6(C)[C@@]5([H])CC[C@]34C
InChI: InChI=1S/C31H48N2O3/c1-17-13-27-29(33(16-17)20(4)35)18(2)28-26(36-27)15-25-23-8-7-21-14-22(32-19(3)34)9-11-30(21,5)24(23)10-12-31(25,28)6/h17-18,21-26,28H,7-16H2,1-6H3,(H,32,34)/t17-,18-,21-,22-,23+,24-,25-,26+,28-,30-,31-/m0/s1
Instrument: Orbitrap Elite
Instrument type: APCI-ITFT
Ms type: MS2
Ion mode: POSITIVE
Ionization: APCI
Collision energy: 35 CID
Column name: Acquity CSHC18
Retention time: 0.083 min
Base peak: 497.37330
Precursor m/z: 497.37330
Precursor type: [M+H]+
Precursor intensity: 2514220000
m/z	relative intensity
147.1183	38
166.1227	488
180.1394	41
199.1492	51
246.1831	33
251.1787	111
281.2261	247
312.2328	215
340.2641	270
364.2614	44
378.3155	666
419.3145	41
437.3563	999
478.349	187
