Mass spectrum: 1-Dehydrotestosterone; LC-ESI-QTOF; MS2; CE: 40;  [M+H]+
Name: 1-Dehydrotestosterone
Class: NA
Formula: C19H26O2
Exact mass: 286.1933
SMILES: C[C@]12CC[C@H]3[C@H]([C@@H]1CC[C@@H]2O)CCC4=CC(=O)C=C[C@]34C
InChI: InChI=1S/C19H26O2/c1-18-9-7-13(20)11-12(18)3-4-14-15-5-6-17(21)19(15,2)10-8-16(14)18/h7,9,11,14-17,21H,3-6,8,10H2,1-2H3/t14-,15-,16-,17-,18-,19-/m0/s1
Instrument: Agilent 6560Â Ion Mobility Q-TOF LC/MS
Instrument type: LC-ESI-QTOF
Ms type: MS2
Ion mode: POSITIVE
Ionization: ESI
Collision energy: 40
Column name: Acquity CSHC18
Retention time: 0.200 min
Base peak: 287.2010
Precursor m/z: 287.2010
Precursor type: [M+H]+
Precursor intensity: 130.5
m/z	relative intensity
77.04	194
79.0529	197
81.0699	212
85.063	275
91.0559	285
93.067	292
105.067	324
112.9226	422
121.069	451
122.0655	999
