Mass spectrum: Benzoic acid; LC-ESI-QTOF; MS2; CE: 15.00;  [2M-2O+Na]+
Name: Benzoic acid
Class: NA
Formula: C7H6O2
Exact mass: 122.0368
SMILES: C1=CC=C(C=C1)C(=O)O
InChI: InChI=1S/C7H6O2/c8-7(9)6-4-2-1-3-5-6/h1-5H,(H,8,9)
Instrument: Bruker MicrOTOF-Q
Instrument type: LC-ESI-QTOF
Ms type: MS2
Ion mode: POSITIVE
Ionization: ESI
Collision energy: 15.00
Column name: Acquity CSHC18
Retention time: NA
Base peak: 235.0730
Precursor m/z: 235.0730
Precursor type: [2M-2O+Na]+
m/z	relative intensity
149.0304	238
165.008	157
171.8591	182
181.088	131
183.0214	157
193.0014	691
201.0291	307
211.021	999
229.0252	383
234.1382	131
234.2048	125
270.8903	169
