Mass spectrum: Prostaglandin A1 ethyl ester; ESI-TOF; MS2; CE: 0.6458333;  [M+H]+
Name: Prostaglandin A1 ethyl ester
Class: NA
Formula: C22H36O4
Exact mass: 364.26136
SMILES: CCCCCC(O)/C=C/[C@H]1C=CC(=O)C1CCCCCCC(=O)OCC
InChI: InChI=1S/C22H36O4/c1-3-5-8-11-19(23)16-14-18-15-17-21(24)20(18)12-9-6-7-10-13-22(25)26-4-2/h14-20,23H,3-13H2,1-2H3/b16-14+/t18-,19?,20?/m0/s1
Instrument: waters xevo g2 TOF
Instrument type: ESI-TOF
Ms type: MS2
Ion mode: POSITIVE
Ionization: ESI
Collision energy: 0.6458333
Column name: Acquity CSHC18
Retention time: 4.673 min
Base peak: 365.26936
Precursor m/z: 365.26936
Precursor type: [M+H]+
m/z	relative intensity
69.0705	65
79.0545	128
81.0706	143
83.0863	101
91.0554	361
93.0705	285
95.0858	211
97.0652	48
105.0709	822
106.0738	60
107.0869	131
117.0715	416
119.0869	390
121.0654	302
123.0803	65
129.0709	379
130.075	53
131.0871	999
132.0905	85
133.0663	449
141.07	25
143.0863	369
144.0908	57
145.1024	371
146.1061	24
147.0395	289
148.0849	42
149.0973	44
157.1016	197
159.1168	199
160.1213	16
161.1337	503
162.136	47
163.1148	61
167.0851	67
169.1009	60
171.1167	205
173.1338	526
174.1369	60
175.1339	147
177.1292	59
179.09	33
181.1019	66
185.1336	333
186.1355	37
187.1478	209
188.1507	26
189.1278	96
191.1438	92
193.1076	3
195.1181	60
197.0803	95
199.0925	122
200.1543	31
201.1633	29
202.1119	3
203.1437	492
204.1456	35
205.1577	16
209.1263	125
209.6219	3
213.086	48
213.6248	3
215.0954	23
217.1589	74
224.1244	3
227.1423	50
231.0712	56
233.0849	23
239.1771	25
241.1962	64
245.1532	39
249.0782	101
255.2107	165
258.1397	18
265.1422	86
273.2213	392
274.2273	89
277.1131	80
283.2056	474
284.2086	84
293.0853	190
294.0875	19
295.0892	34
301.1356	935
302.22	354
303.2226	3
312.1854	82
312.687	32
321.1899	105
321.6896	36
334.0847	11
339.1634	87
341.1757	42
347.1765	75
348.1782	17
349.2659	3
350.2663	3
357.1724	392
358.171	43
359.1638	23
366.2295	83
