Mass spectrum: DL-Dopa; ESI-TOF; MS2; CE: 6.0000000;  [M+H]+
Name: DL-Dopa
Class: NA
Formula: C9H11NO4
Exact mass: 197.06881
SMILES: NC(CC1=CC=C(O)C(O)=C1)C(O)=O
InChI: InChI=1S/C9H11NO4/c10-6(9(13)14)3-5-1-2-7(11)8(12)4-5/h1-2,4,6,11-12H,3,10H2,(H,13,14)
Instrument: waters xevo g2 TOF
Instrument type: ESI-TOF
Ms type: MS2
Ion mode: POSITIVE
Ionization: ESI
Collision energy: 6.0000000
Column name: Acquity CSHC18
Retention time: 0.581 min
Base peak: 198.07681
Precursor m/z: 198.07681
Precursor type: [M+H]+
m/z	relative intensity
93.0341	5
95.05	8
107.0496	11
111.0448	27
112.0476	1
119.0499	2
122.0611	7
123.0446	557
124.0485	50
132.0453	1
134.0604	2
135.0445	275
136.0486	26
137.0598	26
138.0637	2
139.0395	479
140.043	40
141.0448	4
150.0079	12
152.0711	271
153.0742	129
154.0761	10
162.0568	1
163.0395	185
164.0427	18
165.0464	1
166.0501	5
168.0659	23
179.0341	9
180.0669	2
181.0497	999
182.0533	88
183.0548	11
194.0453	16
196.0609	22
197.0647	2
198.0767	925
199.0794	106
