Mass spectrum: NORSPERMIDINE; LC-ESI-QFT; MS2; CE: 30eV;  [M+H]+
Name: NORSPERMIDINE
Class: NA
Formula: C6H17N3
Exact mass: 131.14225
SMILES: NCCCNCCCN
InChI: InChI=1S/C6H17N3/c7-3-1-5-9-6-2-4-8/h9H,1-8H2
Instrument: Q-Exactive Orbitrap, Thermo Scientfic; Ultimate 3000 HPLC, Thermo Scientfic
Instrument type: LC-ESI-QFT
Ms type: MS2
Ion mode: POSITIVE
Ionization: ESI
Collision energy: 30eV
Column name: Acquity CSHC18
Retention time: 0.520 min
Base peak: 132.1495
Precursor m/z: 132.1495
Precursor type: [M+H]+
Precursor intensity: 157
m/z	relative intensity
50.0987	1
51.4225	1
57.058	1
58.0659	999
59.0693	12
61.764	1
67.4998	2
70.0659	88
70.1665	1
72.9379	1
75.0924	269
79.8971	1
87.0923	27
88.7288	1
89.7728	2
90.9038	2
96.8764	1
99.0942	2
99.1004	47
99.1035	2
116.1206	4
116.1268	58
116.1304	3
133.1471	8
133.1531	62
