Mass spectrum: Rutin; ESI-TOF; MS2; CE: 6.0000000;  [M+H]+
Name: Rutin
Class: NA
Formula: C27H30O16
Exact mass: 610.15338
SMILES: CC1OC(OCC2OC(OC3=C(OC4=CC(O)=CC(O)=C4C3=O)C3=CC(O)=C(O)C=C3)C(O)C(O)C2O)C(O)C(O)C1O
InChI: InChI=1S/C27H30O16/c1-8-17(32)20(35)22(37)26(40-8)39-7-15-18(33)21(36)23(38)27(42-15)43-25-19(34)16-13(31)5-10(28)6-14(16)41-24(25)9-2-3-11(29)12(30)4-9/h2-6,8,15,17-18,20-23,26-33,35-38H,7H2,1H3
Instrument: waters xevo g2 TOF
Instrument type: ESI-TOF
Ms type: MS2
Ion mode: POSITIVE
Ionization: ESI
Collision energy: 6.0000000
Column name: Acquity CSHC18
Retention time: 2.228 min
Base peak: 611.16138
Precursor m/z: 611.16138
Precursor type: [M+H]+
m/z	relative intensity
71.0505	5
83.0504	3
85.0295	11
97.9694	2
112.049	1
121.0086	1
129.0556	13
135.0451	1
174.085	16
273.0682	8
274.0445	2
287.0553	1
289.0607	1
293.1254	1
301.0355	56
302.0392	15
303.0505	999
304.0538	155
305.0561	27
306.0584	2
309.1187	2
317.0645	5
325.0309	3
325.5605	1
429.0831	1
447.0925	1
449.108	20
450.1105	8
463.0865	1
465.1033	431
466.1064	58
467.108	26
468.1125	2
479.1176	1
502.0187	1
516.0013	1
517.0037	1
518.0141	4
519.0198	2
595.1654	11
596.1706	3
609.1455	1
611.1607	353
612.1642	108
