Mass spectrum: THIOPURINE S-METHYLETHER; LC-ESI-QTOF; MS2; CE: 10;  [M-H]-
Name: THIOPURINE S-METHYLETHER
Class: NA
Formula: C6H6N4S
Exact mass: 166.03132
SMILES: CSC1=NC=NC2=C1NC=N2
InChI: InChI=1S/C6H6N4S/c1-11-6-4-5(8-2-7-4)9-3-10-6/h2-3H,1H3,(H,7,8,9,10)
Instrument: Agilent 6530Â Q-TOF LC/MS
Instrument type: LC-ESI-QTOF
Ms type: MS2
Ion mode: NEGATIVE
Ionization: ESI
Collision energy: 10
Column name: NA
Retention time: 0.200 min
Base peak: 165.02173
Precursor m/z: 165.02173
Precursor type: [M-H]-
Precursor intensity: 175
m/z	relative intensity
57.9764	140
64.0047	148
65.0134	153
81.9775	162
90.0131	163
91.0142	172
117.0304	176
119.0334	212
122.9918	395
150.0268	783
165.0438	999
