Mass spectrum: ASPARAGINE; LC-ESI-QTOF; MS2; CE: 10;  [M+H]+
Name: ASPARAGINE
Class: NA
Formula: C4H8N2O3
Exact mass: 132.0535
SMILES: N[C@@H](CC(N)=O)C(O)=O
InChI: InChI=1S/C4H8N2O3/c5-2(4(8)9)1-3(6)7/h2H,1,5H2,(H2,6,7)(H,8,9)/t2-/m0/s1
Instrument: Agilent 6530Â Q-TOF LC/MS
Instrument type: LC-ESI-QTOF
Ms type: MS2
Ion mode: POSITIVE
Ionization: ESI
Collision energy: 10
Column name: NA
Retention time: 0.200 min
Base peak: 133.06095
Precursor m/z: 133.06095
Precursor type: [M+H]+
Precursor intensity: 192.5
m/z	relative intensity
44.0493	30
45.0415	47
46.0294	105
70.0303	114
74.024	124
87.0554	136
88.0379	193
116.0361	291
133.0612	999
