Mass spectrum: Histidine; LC-ESI-QTOF; MS2; CE: 15 / 50;  [M+H]+
Name: Histidine
Class: NA
Formula: C6H9N3O2
Exact mass: 155.06948
SMILES: C1=C(NC=N1)CC(C(=O)O)N
InChI: InChI=1S/C6H9N3O2/c7-5(6(10)11)1-4-2-8-3-9-4/h2-3,5H,1,7H2,(H,8,9)(H,10,11)
Instrument: impact II
Instrument type: LC-ESI-QTOF
Ms type: MS2
Ion mode: POSITIVE
Ionization: ESI
Collision energy: 15 / 50
Column name: Acquity CSHC18
Retention time: 0.540 min
Base peak: 156.07660
Precursor m/z: 156.07660
Precursor type: [M+H]+
m/z	relative intensity
56.0501	177
81.045	115
83.0608	110
110.0714	999
156.0768	233
