Mass spectrum: L-Homocysteic acid; ESI-TOF; MS2; CE: 6.0000000;  [M+H]+
Name: L-Homocysteic acid
Class: NA
Formula: C4H9NO5S
Exact mass: 183.02014
SMILES: NC(CCS(O)(=O)=O)C(O)=O
InChI: InChI=1S/C4H9NO5S/c5-3(4(6)7)1-2-11(8,9)10/h3H,1-2,5H2,(H,6,7)(H,8,9,10)
Instrument: waters xevo g2 TOF
Instrument type: ESI-TOF
Ms type: MS2
Ion mode: POSITIVE
Ionization: ESI
Collision energy: 6.0000000
Column name: Acquity CSHC18
Retention time: 0.622 min
Base peak: 184.02814
Precursor m/z: 184.02814
Precursor type: [M+H]+
m/z	relative intensity
102.129	12
124.957	2
129.0205	4
139.0249	6
140.0192	11
160.0054	5
163.9767	4
184.0284	999
185.0314	62
186.0258	51
198.0435	4
206.0001	86
210.9606	11
221.9762	36
222.9615	45
224.9762	22
232.9676	7
233.9757	6
237.9483	20
239.9864	14
254.9527	3
257.9586	3
263.0017	12
268.9662	81
269.9707	14
271.9735	1
273.9666	1
277.0179	1
278.9726	27
280.9724	2
282.9472	4
302.2014	5
331.9802	16
332.9256	2
349.0364	10
367.0484	85
368.0508	9
369.0457	9
375.9696	10
389.0253	8
391.0057	6
404.9951	20
406.9942	1
415.9645	3
419.9593	46
420.9667	37
422.9681	14
558.9846	4
572.0425	8
574.0298	4
588.0157	15
589.0168	2
590.0113	1
600.9755	1
602.9795	30
603.9839	24
604.9815	9
605.9842	7
733.0873	7
734.0915	1
735.0862	1
757.0473	4
784.0056	2
785.9987	37
786.9968	10
787.9923	8
