Mass spectrum: 16,16-dimethyl Prostaglandin A1; ESI-TOF; MS2; CE: 6.0000000;  [M+H]+
Name: 16,16-dimethyl Prostaglandin A1
Class: NA
Formula: C22H36O4
Exact mass: 364.26136
SMILES: CCCCC(C)(C)C(O)\C=C\[C@H]1C=CC(=O)C1CCCCCCC(=O)O
InChI: InChI=1S/C22H36O4/c1-4-5-16-22(2,3)20(24)15-13-17-12-14-19(23)18(17)10-8-6-7-9-11-21(25)26/h12-15,17-18,20,24H,4-11,16H2,1-3H3,(H,25,26)/b15-13+/t17-,18?,20?/m1/s1
Instrument: waters xevo g2 TOF
Instrument type: ESI-TOF
Ms type: MS2
Ion mode: POSITIVE
Ionization: ESI
Collision energy: 6.0000000
Column name: Acquity CSHC18
Retention time: 4.403 min
Base peak: 365.26936
Precursor m/z: 365.26936
Precursor type: [M+H]+
m/z	relative intensity
93.0697	1
100.9995	2
101.9629	3
121.1029	1
128.9865	2
135.118	5
137.1331	44
139.9828	2
141.9596	36
145.1028	3
147.1178	10
149.0689	5
160.0632	7
161.1178	1
163.1485	1
169.159	5
171.1185	1
175.1467	2
177.1632	3
185.5882	5
193.1219	36
201.1644	13
203.143	3
205.1243	4
211.1024	2
213.1635	5
215.1796	2
219.1364	3
231.1661	6
245.1508	5
268.083	12
270.1001	2
273.1842	14
287.2017	8
293.223	3
299.1149	3
301.1952	21
302.1413	4
311.2364	109
312.2411	24
313.2419	2
315.1262	19
324.1818	3
329.1923	999
330.2012	256
331.2236	36
343.1523	6
347.2584	726
348.2628	177
349.2632	24
366.2311	275
366.732	120
367.2323	35
