Mass spectrum: SORBITOL; LC-ESI-QFT; MS2; CE: 30eV;  [M+H]+
Name: SORBITOL
Class: NA
Formula: C6H14O6
Exact mass: 182.07904
SMILES: OC[C@H](O)[C@@H](O)[C@H](O)[C@H](O)CO
InChI: InChI=1S/C6H14O6/c7-1-3(9)5(11)6(12)4(10)2-8/h3-12H,1-2H2/t3-,4+,5-,6-/m1/s1
Instrument: Q-Exactive Orbitrap, Thermo Scientfic; Ultimate 3000 HPLC, Thermo Scientfic
Instrument type: LC-ESI-QFT
Ms type: MS2
Ion mode: POSITIVE
Ionization: ESI
Collision energy: 30eV
Column name: Acquity CSHC18
Retention time: 0.588 min
Base peak: 183.0863
Precursor m/z: 183.0863
Precursor type: [M+H]+
Precursor intensity: 170
m/z	relative intensity
53.0394	3
55.0186	27
55.055	31
55.9351	6
56.9429	45
57.0342	79
57.6009	2
59.0498	5
61.0291	81
65.0393	3
67.0549	4
69.0341	628
70.0375	16
71.0498	38
72.9376	50
73.0291	36
73.0655	2
74.9535	3
75.0448	11
78.5906	2
81.0341	43
83.0497	230
83.222	2
85.029	172
86.0323	3
87.0446	87
90.9482	21
91.0395	34
93.5798	2
95.9743	2
97.9692	113
99.0445	113
100.2183	2
100.9322	3
101.0602	4
103.0394	57
105.034	4
111.0444	189
112.048	4
113.964	999
114.9484	21
114.9609	2
114.9644	15
114.9679	5
114.9721	3
115.9798	10
117.055	24
118.943	5
127.9798	2
129.0548	226
130.0582	5
131.9744	358
132.9589	38
134.4108	2
136.9538	4
137.7883	2
137.9642	5
140.7562	3
141.9587	294
147.0653	56
155.9747	75
156.9751	2
156.9829	6
159.7243	2
159.9461	5
159.9692	266
165.0759	20
177.9565	40
177.9797	5
182.986	3
183.0865	4
