Mass spectrum: Daidzein; LC-ESI-ITFT; MS2; CE: 100;  [M-H]-
Name: Daidzein
Class: Phenylpropanoids and polyketides; Isoflavonoids; Isoflav-2-enes
Formula: C15H10O4
Exact mass: 254.05791
SMILES: OC1=CC=C(C=C1)C1=COC2=C(C=CC(O)=C2)C1=O
InChI: InChI=1S/C15H10O4/c16-10-3-1-9(2-4-10)13-8-19-14-7-11(17)5-6-12(14)15(13)18/h1-8,16-17H
Instrument: Thermo Scientific Q-Exactive Focus
Instrument type: LC-ESI-ITFT
Ms type: MS2
Ion mode: NEGATIVE
Ionization: ESI
Collision energy: 100
Column name: Acquity CSHC18
Retention time: 2.587 min
Base peak: 253.05063
Precursor m/z: 253.05063
Precursor type: [M-H]-
m/z	relative intensity
50.6962	65
63.5698	62
65.002	999
74.2504	61
96.7975	66
106.0576	61
117.0556	64
143.4734	76
239.0755	81
260.7406	61
