Mass spectrum: (-)-methyl jasmonate; LC-ESI-QTOF; MS2; CE: 15.00;  [M+H]+
Name: (-)-methyl jasmonate
Class: NA
Formula: C13H20O3
Exact mass: 224.1412
SMILES: CCC=CCC1C(CCC1=O)CC(=O)OC
InChI: InChI=1S/C13H20O3/c1-3-4-5-6-11-10(7-8-12(11)14)9-13(15)16-2/h4-5,10-11H,3,6-9H2,1-2H3
Instrument: Bruker MicrOTOF-Q
Instrument type: LC-ESI-QTOF
Ms type: MS2
Ion mode: POSITIVE
Ionization: ESI
Collision energy: 15.00
Column name: Acquity CSHC18
Retention time: NA
Base peak: 225.1485
Precursor m/z: 225.1485
Precursor type: [M+H]+
m/z	relative intensity
93.0675	24
95.0812	19
97.0615	41
107.0829	39
109.0976	163
110.1009	45
111.0777	854
112.0841	81
121.097	17
125.0601	19
133.1018	55
134.1061	44
135.1148	180
136.1149	27
148.1229	42
149.1298	428
150.1344	47
151.1111	20
152.1108	19
153.1254	71
167.1432	186
177.125	62
195.1356	999
196.14	137
