Mass spectrum: Allantoin; LC-ESI-ITFT; MS2; CE: 10;  [M-H]-
Name: Allantoin
Class: Organoheterocyclic compounds; Azoles; Imidazoles
Formula: C4H6N4O3
Exact mass: 158.04399
SMILES: NC(=O)NC1NC(=O)NC1=O
InChI: InChI=1S/C4H6N4O3/c5-3(10)6-1-2(9)8-4(11)7-1/h1H,(H3,5,6,10)(H2,7,8,9,11)
Instrument: Thermo Scientific Q-Exactive Focus
Instrument type: LC-ESI-ITFT
Ms type: MS2
Ion mode: NEGATIVE
Ionization: ESI
Collision energy: 10
Column name: Acquity CSHC18
Retention time: 0.361 min
Base peak: 157.03671
Precursor m/z: 157.03671
Precursor type: [M-H]-
m/z	relative intensity
59.0239	26
71.0238	80
89.0232	19
97.0031	999
97.7943	6
114.0297	875
114.0318	7
119.5642	6
140.009	59
157.0357	133
