Mass spectrum: N,N-DIMETHYLARGININE; LC-ESI-QTOF; MS2; CE: 20;  [M-H]-
Name: N,N-DIMETHYLARGININE
Class: NA
Formula: C8H18N4O2
Exact mass: 202.14298
SMILES: N[C@@H](CCC\N=C(/N)N(C)C)C(O)=O
InChI: InChI=1S/C8H18N4O2/c1-12(2)8(10)11-5-3-4-6(9)7(13)14/h6H,3-5,9H2,1-2H3,(H2,10,11)(H,13,14)/t6-/m0/s1
Instrument: Agilent 6530Â Q-TOF LC/MS
Instrument type: LC-ESI-QTOF
Ms type: MS2
Ion mode: NEGATIVE
Ionization: ESI
Collision energy: 20
Column name: NA
Retention time: 0.200 min
Base peak: 201.13406
Precursor m/z: 201.13406
Precursor type: [M-H]-
Precursor intensity: 177
m/z	relative intensity
41.0281	105
42.0128	108
70.841	108
79.9617	116
95.0621	120
112.0861	136
113.0656	144
114.0617	195
116.9491	267
156.0845	999
