Mass spectrum: Hippuric acid; ESI-TOF; MS2; CE: 6.0000000;  [M+H]+
Name: Hippuric acid
Class: NA
Formula: C9H9NO3
Exact mass: 179.05824
SMILES: OC(=O)CNC(=O)C1=CC=CC=C1
InChI: InChI=1S/C9H9NO3/c11-8(12)6-10-9(13)7-4-2-1-3-5-7/h1-5H,6H2,(H,10,13)(H,11,12)
Instrument: waters xevo g2 TOF
Instrument type: ESI-TOF
Ms type: MS2
Ion mode: POSITIVE
Ionization: ESI
Collision energy: 6.0000000
Column name: Acquity CSHC18
Retention time: 1.997 min
Base peak: 180.06624
Precursor m/z: 180.06624
Precursor type: [M+H]+
m/z	relative intensity
77.0396	18
78.0435	1
96.9617	15
105.0343	891
106.0512	39
107.0565	2
113.9869	5
127.9798	23
134.0607	26
142.0344	1
146.0137	1
152.0712	6
155.0132	4
162.0216	29
163.0334	2
180.0816	601
181.0693	69
182.1432	6
185.0742	3
186.0745	43
187.0778	2
191.0029	10
202.0481	999
203.0272	56
204.0524	12
208.0045	5
209.0132	5
218.063	12
221.0174	15
222.0187	4
223.0267	2
224.0301	11
231.022	11
232.0289	7
233.0233	10
233.9852	4
234.9941	14
236.0233	3
248.0394	1
250.0369	7
251.0881	4
259.0396	3
265.0084	5
273.1324	14
279.9901	5
283.1758	1
293.0791	4
309.0623	2
310.0689	16
315.0267	2
315.5267	3
323.5154	3
324.0569	7
325.0629	19
326.0671	4
327.0643	3
335.1001	1
338.0591	2
340.0516	41
341.0538	4
353.0809	3
363.1612	1
364.0514	3
368.0454	15
369.0528	6
371.0538	29
372.0561	5
373.0503	10
381.0942	14
382.0955	4
383.0827	54
384.0866	10
397.0709	226
398.0743	50
399.0753	7
401.0634	5
403.0872	8
404.5525	6
405.0612	3
408.0416	5
409.0437	1
410.0391	19
411.0458	10
412.0365	283
413.0412	158
414.0412	35
415.0444	54
416.0467	12
417.0401	21
418.0408	4
419.0443	3
421.0392	1
432.0186	2
435.0233	3
440.0078	1
520.5426	1
560.1554	2
576.1294	71
577.1322	23
578.1333	4
589.0941	2
591.0948	42
592.0982	16
593.0987	3
594.1003	10
596.0999	4
598.1048	3
611.0812	1
613.0756	25
614.0764	6
615.0784	2
629.0464	2
630.0498	7
646.0225	2
647.0283	1
674.0146	2
785.1585	2
808.0956	3
809.094	1
814.1136	26
815.1157	11
816.1209	2
823.0651	3
824.0699	2
826.0718	2
1015.1483	1
