Mass spectrum: LYSINE; LC-ESI-QFT; MS2; CE: 30eV;  [M+H]+
Name: LYSINE
Class: NA
Formula: C6H14N2O2
Exact mass: 146.10553
SMILES: NCCCC[C@H](N)C(O)=O
InChI: InChI=1S/C6H14N2O2/c7-4-2-1-3-5(8)6(9)10/h5H,1-4,7-8H2,(H,9,10)/t5-/m0/s1
Instrument: Q-Exactive Orbitrap, Thermo Scientfic; Ultimate 3000 HPLC, Thermo Scientfic
Instrument type: LC-ESI-QFT
Ms type: MS2
Ion mode: POSITIVE
Ionization: ESI
Collision energy: 30eV
Column name: Acquity CSHC18
Retention time: 0.542 min
Base peak: 147.1128
Precursor m/z: 147.1128
Precursor type: [M+H]+
Precursor intensity: 198
m/z	relative intensity
52.2449	7
54.3601	7
55.0551	9
56.0502	94
56.9117	7
63.4049	7
67.055	42
74.0244	18
75.3233	7
78.4127	8
84.0451	9
85.0654	49
85.0785	15
85.0848	284
94.6825	7
98.5047	8
101.1079	88
102.0919	67
111.9066	7
112.0762	48
123.6866	11
129.1025	215
131.0898	215
141.09	9
147.113	999
148.1163	19
