Mass spectrum: H-Phe-Ile-OH; LC-ESI-QTOF; MS2; CE: 31.15;  [2M+H]+
Name: H-Phe-Ile-OH
Class: NA
Formula: C15H22N2O3
Exact mass: 278.1630
SMILES: CCC(C)C(C(=O)O)NC(=O)C(CC1=CC=CC=C1)N
InChI: InChI=1S/C15H22N2O3/c1-3-10(2)13(15(19)20)17-14(18)12(16)9-11-7-5-4-6-8-11/h4-8,10,12-13H,3,9,16H2,1-2H3,(H,17,18)(H,19,20)
Instrument: Bruker MicrOTOF-Q
Instrument type: LC-ESI-QTOF
Ms type: MS2
Ion mode: POSITIVE
Ionization: ESI
Collision energy: 31.15
Column name: Acquity CSHC18
Retention time: NA
Base peak: 557.3334
Precursor m/z: 557.3334
Precursor type: [2M+H]+
m/z	relative intensity
91.59	2
184.7	3
216.14	7
217.15	2
220.13	2
232.94	2
233.16	222
233.53	2
234.17	44
235.18	3
235.23	3
236.04	2
250.85	2
261.16	16
262.15	18
263.15	2
264.15	2
277.94	2
278.88	3
279.17	999
279.52	2
279.77	3
279.91	2
280.17	143
280.62	2
280.92	3
281.17	23
281.41	2
282.19	6
317.1	2
382.32	2
383.47	2
