Mass spectrum: Gentiobiose; LC-ESI-QTOF; MS2; CE: -10, -35, -60V;  [M-H]-
Name: Gentiobiose
Class: NA
Formula: C12H22O11
Exact mass: 342.1162
SMILES: C(C1C(C(C(C(O1)OCC2C(C(C(C(O2)O)O)O)O)O)O)O)O
InChI: InChI=1S/C12H22O11/c13-1-3-5(14)8(17)10(19)12(23-3)21-2-4-6(15)7(16)9(18)11(20)22-4/h3-20H,1-2H2
Instrument: TripleToF 5600; Sciex
Instrument type: LC-ESI-QTOF
Ms type: MS2
Ion mode: NEGATIVE
Ionization: ESI
Collision energy: -10, -35, -60V
Column name: Acquity CSHC18
Retention time: 0.674 min
Base peak: 341.1122
Precursor m/z: 341.1122
Precursor type: [M-H]-
Precursor intensity: 117022
m/z	relative intensity
71.0148	137
73.0297	46
83.0181	21
85.0275	48
89.0252	225
90.0282	14
101.0206	265
101.0248	265
113.0224	72
119.0339	146
131.0342	40
141.0174	13
149.0472	15
161.0426	270
179.059	999
180.0634	72
181.0668	17
221.0688	542
222.0711	43
251.0701	142
251.0768	145
281.0926	80
323.0971	86
324.1178	28
341.1126	883
