Mass spectrum: Flavin mononucleotide; LC-ESI-QTOF; MS2; CE: 20-40eV;  [M+H]+
Name: Flavin mononucleotide
Class: Flavin
Formula: C17H21N4O9P
Exact mass: 456.1046
SMILES: CC1=CC2=C(C=C1C)N(CC(C(C(COP(O)(O)=O)(O)[H])(O)[H])(O)[H])C=3C(C(=NC(N3)=O)O)=N2
InChI: InChI=1S/C17H21N4O9P/c1-7-3-9-10(4-8(7)2)21(15-13(18-9)16(25)20-17(26)19-15)5-11(22)14(24)12(23)6-30-31(27,28)29/h3-4,11-12,14,22-24H,5-6H2,1-2H3,(H,20,25,26)(H2,27,28,29)
Instrument: Impact II, Bruker; Dionex 3000, Thermo Scientific
Instrument type: LC-ESI-QTOF
Ms type: MS2
Ion mode: POSITIVE
Ionization: ESI
Collision energy: 20-40eV
Column name: Acquity CSHC18
Retention time: 3.601 min
Base peak: 457.1126
Precursor m/z: 457.1126
Precursor type: [M+H]+
Precursor intensity: 39111.25
m/z	relative intensity
99.0134	354
198.0836	808
200.1012	999
