Mass spectrum: L-Asparagine; LC-ESI-ITFT; MS2; CE: 20;  [M+H]+
Name: L-Asparagine
Class: Organic acids and derivatives; Carboxylic acids and derivatives; Amino acids, peptides, and analogues
Formula: C4H8N2O3
Exact mass: 132.05349
SMILES: N[C@@H](CC(N)=O)C(O)=O
InChI: InChI=1S/C4H8N2O3/c5-2(4(8)9)1-3(6)7/h2H,1,5H2,(H2,6,7)(H,8,9)/t2-/m0/s1
Instrument: Thermo Scientific Q-Exactive Focus
Instrument type: LC-ESI-ITFT
Ms type: MS2
Ion mode: POSITIVE
Ionization: ESI
Collision energy: 20
Column name: Acquity CSHC18
Retention time: 0.630 min
Base peak: 133.06078
Precursor m/z: 133.06078
Precursor type: [M+H]+
m/z	relative intensity
53.9789	4
60.045	11
70.0293	93
74.0242	999
87.0557	45
88.0398	30
99.008	7
103.215	4
116.0345	21
150.3863	4
