Mass spectrum: L-Kynurenine; LC-ESI-ITFT; MS2; CE: 20;  [M+H]+
Name: L-Kynurenine
Class: Organic oxygen compounds; Organooxygen compounds; Carbonyl compounds
Formula: C10H12N2O3
Exact mass: 208.08479
SMILES: N[C@@H](CC(=O)C1=CC=CC=C1N)C(O)=O
InChI: InChI=1S/C10H12N2O3/c11-7-4-2-1-3-6(7)9(13)5-8(12)10(14)15/h1-4,8H,5,11-12H2,(H,14,15)/t8-/m0/s1
Instrument: Thermo Scientific Q-Exactive Focus
Instrument type: LC-ESI-ITFT
Ms type: MS2
Ion mode: POSITIVE
Ionization: ESI
Collision energy: 20
Column name: Acquity CSHC18
Retention time: 0.630 min
Base peak: 209.09207
Precursor m/z: 209.09207
Precursor type: [M+H]+
m/z	relative intensity
74.0241	318
94.0655	931
99.008	174
118.0653	460
120.0446	480
132.0445	182
136.0757	382
146.0601	999
150.055	174
174.0549	430
