Mass spectrum: DL-Homocysteine; LC-ESI-QTOF; MS2; CE: -10, -35, -60V;  [M-H]-
Name: DL-Homocysteine
Class: NA
Formula: C4H9NO2S
Exact mass: 135.0354
SMILES: C(CS)C(C(=O)O)N
InChI: InChI=1S/C4H9NO2S/c5-3(1-2-8)4(6)7/h3,8H,1-2,5H2,(H,6,7)
Instrument: TripleToF 5600; Sciex
Instrument type: LC-ESI-QTOF
Ms type: MS2
Ion mode: NEGATIVE
Ionization: ESI
Collision energy: -10, -35, -60V
Column name: Acquity CSHC18
Retention time: 0.732 min
Base peak: 134.0280
Precursor m/z: 134.0280
Precursor type: [M-H]-
Precursor intensity: 17298.81
m/z	relative intensity
79.9554	99
80.9697	149
121.0311	155
134.0254	999
