Mass spectrum: METHYLMALONATE; LC-ESI-QTOF; MS2; CE: 20;  [M-H]-
Name: METHYLMALONATE
Class: NA
Formula: C4H6O4
Exact mass: 118.02661
SMILES: CC(C(O)=O)C(O)=O
InChI: InChI=1S/C4H6O4/c1-2(3(5)6)4(7)8/h2H,1H3,(H,5,6)(H,7,8)
Instrument: Agilent 6530Â Q-TOF LC/MS
Instrument type: LC-ESI-QTOF
Ms type: MS2
Ion mode: NEGATIVE
Ionization: ESI
Collision energy: 20
Column name: NA
Retention time: 0.200 min
Base peak: 117.02031
Precursor m/z: 117.02031
Precursor type: [M-H]-
Precursor intensity: 103
m/z	relative intensity
40.0062	139
55.0403	586
73.0444	999
