Mass spectrum: Silybin; LC-ESI-QTOF; MS2; CE: 50eV;  [M-H]-
Name: Silybin
Class: Flavonolignan
Formula: C25H22O10
Exact mass: 482.1213
SMILES: COC1=C(C=CC(=C1)C2C(OC3=C(O2)C=C(C=C3)C4C(C(=O)C5=C(C=C(C=C5O4)O)O)O)CO)O
InChI: InChI=1S/C25H22O10/c1-32-17-6-11(2-4-14(17)28)24-20(10-26)33-16-5-3-12(7-18(16)34-24)25-23(31)22(30)21-15(29)8-13(27)9-19(21)35-25/h2-9,20,23-29,31H,10H2,1H3
Instrument: TIMS-TOF Pro, Bruker Daltonik; Elute UHPLC System, Bruker Daltonik
Instrument type: LC-ESI-QTOF
Ms type: MS2
Ion mode: NEGATIVE
Ionization: ESI
Collision energy: 50eV
Column name: Acquity CSHC18
Retention time: 7.147 min
Base peak: 481.1066
Precursor m/z: 481.1066
Precursor type: [M-H]-
Precursor intensity: 47705.33
m/z	relative intensity
29.9068	1
45.9481	2
56.4207	1
57.0334	14
57.2444	1
59.7015	1
63.0236	3
63.4449	1
65.0016	6
67.0179	2
74.2088	2
79.5063	1
81.1825	1
81.4783	1
83.0126	18
84.1918	4
88.2796	1
89.3644	1
95.0121	4
96.0214	3
96.991	2
102.4302	1
105.0366	1
107.0124	20
108.0178	5
109.0264	5
111.006	4
115.0542	1
121.0271	20
122.0352	6
123.0441	3
124.0149	44
124.2943	1
124.9579	2
125.0231	209
125.7929	1
126.0265	11
127.0303	2
130.5571	1
132.0477	1
134.0373	3
135.0431	6
136.016	3
137.0237	5
139.002	1
145.0238	1
146.0357	18
147.0052	7
148.0125	7
149.0396	12
150.0297	5
151.0008	82
151.4816	1
152.008	168
152.1791	1
152.2667	1
152.3386	1
152.4068	1
152.4944	1
152.6249	1
152.8275	1
153.0147	12
154.013	2
157.6582	1
159.0431	3
160.0449	1
161.0558	10
162.0298	2
163.0348	6
164.0471	9
164.4209	1
165.0138	3
170.034	1
171.5279	1
172.2969	1
174.1126	1
175.0376	3
176.0069	2
177.9745	2
179.5386	2
180.0037	19
180.2005	1
181.0121	3
182.0126	1
183.0415	2
187.0373	9
188.0456	2
191.0304	5
195.0414	2
199.0364	1
201.0501	1
203.0268	1
214.06	1
215.0022	2
216.0369	3
217.253	3
227.8346	1
228.449	3
230.4457	1
230.6133	3
232.3092	2
233.0765	2
234.1224	2
235.6762	2
238.5143	1
239.7456	1
241.7297	2
243.4266	2
247.029	3
249.4636	1
252.3733	2
254.1523	4
257.0437	10
257.8102	2
258.0482	6
263.2615	1
265.492	3
267.5899	2
273.0389	5
274.0429	3
276.7799	3
283.0185	9
284.0247	5
285.038	5
287.054	2
299.0566	2
301.0313	156
301.2638	1
301.5677	1
301.9594	1
302.0334	27
302.2006	1
303.0454	3
306.4281	1
310.2488	1
315.0777	1
332.7437	1
355.0729	3
356.0823	2
357.0768	2
372.4002	1
377.0977	1
394.3483	1
421.0883	1
423.1032	2
424.0962	1
431.5384	1
435.1028	9
436.1066	3
437.1147	7
438.1174	3
444.6133	2
446.0907	1
451.0966	19
452.0951	7
453.1115	61
453.3801	1
454.1156	14
454.4214	1
455.1175	3
463.0939	24
463.5589	1
463.9833	1
464.0988	11
465.1082	2
480.6536	2
480.785	2
480.8714	1
480.9613	3
481.1066	999
481.3124	2
481.4387	2
481.6047	3
