Mass spectrum: Phe-Phe; ESI-TOF; MS2; CE: 0.6458333;  [M+H]+
Name: Phe-Phe
Class: NA
Formula: C18H20N2O3
Exact mass: 312.14739
SMILES: C1=CC=C(C=C1)CC(C(=O)NC(CC2=CC=CC=C2)C(=O)O)N
InChI: InChI=1S/C18H20N2O3/c19-15(11-13-7-3-1-4-8-13)17(21)20-16(18(22)23)12-14-9-5-2-6-10-14/h1-10,15-16H,11-12,19H2,(H,20,21)(H,22,23)
Instrument: waters xevo g2 TOF
Instrument type: ESI-TOF
Ms type: MS2
Ion mode: POSITIVE
Ionization: ESI
Collision energy: 0.6458333
Column name: Acquity CSHC18
Retention time: 2.022 min
Base peak: 313.15539
Precursor m/z: 313.15539
Precursor type: [M+H]+
m/z	relative intensity
55.0561	1
77.0396	2
89.0233	1
91.0542	5
93.0702	9
99.0437	1
103.0549	38
104.0576	2
107.0497	1
118.0655	1
120.0815	999
121.0846	100
122.0882	3
131.0522	3
146.0612	2
149.0602	2
166.0868	55
167.0902	5
175.0072	1
188.0687	2
211.0287	1
267.1499	3
268.1507	1
313.1556	19
314.1577	3
322.0765	2
335.1369	28
336.1398	4
351.1044	1
357.1183	1
357.1196	3
663.2483	1
681.2211	1
685.2281	1
1019.3563	1
1034.339	1
1035.3287	1
