Mass spectrum: DEOXYCARNITINE; LC-ESI-QFT; MS2; CE: 30eV;  [M+H]+
Name: DEOXYCARNITINE
Class: NA
Formula: C7H15NO2
Exact mass: 145.11028
SMILES: C[N+](C)(CCCC([O-])=O)C
InChI: InChI=1S/C7H15NO2/c1-8(2,3)6-4-5-7(9)10/h4-6H2,1-3H3
Instrument: Q-Exactive Orbitrap, Thermo Scientfic; Ultimate 3000 HPLC, Thermo Scientfic
Instrument type: LC-ESI-QFT
Ms type: MS2
Ion mode: POSITIVE
Ionization: ESI
Collision energy: 30eV
Column name: Acquity CSHC18
Retention time: 0.605 min
Base peak: 146.1176
Precursor m/z: 146.1176
Precursor type: [M+H]+
Precursor intensity: 123
m/z	relative intensity
50.8318	45
53.7138	43
56.0493	45
58.0659	238
61.085	321
62.866	42
71.3701	40
72.8164	47
75.4613	47
75.5755	41
88.0481	999
89.014	47
91.2037	37
102.087	46
110.72	48
122.3924	44
146.8862	53
162.5091	45
