Mass spectrum: Azaleatin 3-O-glucoside; LC-ESI-QTOF; MS2; CE: 50eV;  [M+H]+
Name: Azaleatin 3-O-glucoside
Class: Flavonol
Formula: C22H22O12
Exact mass: 478.1111
SMILES: COC1=CC(=CC2=C1C(=O)C(=C(O2)C3=CC(=C(C=C3)O)O)OC4C(C(C(C(O4)CO)O)O)O)O
InChI: InChI=1S/C22H22O12/c1-31-12-5-9(24)6-13-15(12)17(28)21(20(32-13)8-2-3-10(25)11(26)4-8)34-22-19(30)18(29)16(27)14(7-23)33-22/h2-6,14,16,18-19,22-27,29-30H,7H2,1H3
Instrument: TIMS-TOF Pro, Bruker Daltonik; Elute UHPLC System, Bruker Daltonik
Instrument type: LC-ESI-QTOF
Ms type: MS2
Ion mode: POSITIVE
Ionization: ESI
Collision energy: 50eV
Column name: Acquity CSHC18
Retention time: 4.833 min
Base peak: 479.1141
Precursor m/z: 479.1141
Precursor type: [M+H]+
Precursor intensity: 213105.9
m/z	relative intensity
60.8096	1
85.0093	1
85.0298	4
91.0401	1
97.029	2
126.9187	1
144.092	1
145.0516	3
229.0446	1
257.0378	1
274.0506	1
301.0308	2
302.0088	3
302.0392	40
303.041	5
306.2422	1
316.4491	1
316.8642	1
317.011	9
317.0365	11
317.0619	999
317.353	1
317.5706	5
318.0656	77
319.0681	11
319.1815	1
479.1176	2
