Mass spectrum: GLUCOSAMINATE; LC-ESI-QTOF; MS2; CE: 40;  [M-H]-
Name: GLUCOSAMINATE
Class: NA
Formula: C6H13NO6
Exact mass: 195.07429
SMILES: C(C(C(C(C(C(=O)O)N)O)O)O)O
InChI: InChI=1S/C6H13NO6/c7-3(6(12)13)5(11)4(10)2(9)1-8/h2-5,8-11H,1,7H2,(H,12,13)
Instrument: Agilent 6530Â Q-TOF LC/MS
Instrument type: LC-ESI-QTOF
Ms type: MS2
Ion mode: NEGATIVE
Ionization: ESI
Collision energy: 40
Column name: NA
Retention time: 0.200 min
Base peak: 194.06369
Precursor m/z: 194.06369
Precursor type: [M-H]-
Precursor intensity: 126
m/z	relative intensity
41.0055	134
43.0199	174
59.0295	198
68.0187	251
71.0115	783
74.0441	999
