Mass spectrum: AMINOADIPATE; LC-ESI-QTOF; MS2; CE: 40;  [M+H]+
Name: AMINOADIPATE
Class: NA
Formula: C6H11NO4
Exact mass: 161.0688
SMILES: NC(CCCC(O)=O)C(O)=O
InChI: InChI=1S/C6H11NO4/c7-4(6(10)11)2-1-3-5(8)9/h4H,1-3,7H2,(H,8,9)(H,10,11)
Instrument: Agilent 6530Â Q-TOF LC/MS
Instrument type: LC-ESI-QTOF
Ms type: MS2
Ion mode: POSITIVE
Ionization: ESI
Collision energy: 40
Column name: NA
Retention time: 0.200 min
Base peak: 162.07694
Precursor m/z: 162.07694
Precursor type: [M+H]+
Precursor intensity: 187.5
m/z	relative intensity
44.4786	28
48.5946	25
48.8374	56
50.2971	15
54.9036	40
55.0173	999
55.075	63
57.4637	17
57.5444	50
58.645	15
59.4914	28
61.966	71
78.6071	66
79.5129	30
80.7293	20
82.2662	22
88.7767	101
88.812	25
90.5566	38
95.1349	61
95.5855	63
98.0593	63
98.1571	15
98.9454	50
103.839	89
104.5913	15
105.0507	10
110.4851	25
127.853	40
139.6413	122
139.7097	12
142.2436	25
145.7032	71
147.5727	17
152.2432	28
155.97	53
164.1485	15
