Mass spectrum: Lyciumoside IV; LC-ESI-QTOF; MS2; CE: 15eV;  [M+NH4]+
Name: Lyciumoside IV
Class: Diterpene
Formula: C38H64O16
Exact mass: 776.4194
SMILES: CC1C(C(C(C(O1)OC2C(OC(C(C2O)O)OC(C)(CCC=C(C)CCC=C(C)CCC=C(C)COC3C(C(C(C(O3)CO)O)O)O)C=C)CO)O)O)O
InChI: InChI=1S/C38H64O16/c1-7-38(6,54-37-33(48)30(45)34(25(18-40)52-37)53-36-32(47)28(43)26(41)23(5)50-36)16-10-15-21(3)12-8-11-20(2)13-9-14-22(4)19-49-35-31(46)29(44)27(42)24(17-39)51-35/h7,11,14-15,23-37,39-48H,1,8-10,12-13,16-19H2,2-6H3
Instrument: Impact II qTOF
Instrument type: LC-ESI-QTOF
Ms type: MS2
Ion mode: POSITIVE
Ionization: ESI
Collision energy: 15eV
Column name: Direct injection MS/MS
Retention time: 2.5 min
Base peak: 794.4547
Precursor m/z: 794.4547
Precursor type: [M+NH4]+
m/z	relative intensity
271.2417	637
272.245	120
273.0965	57
273.2541	33
289.2518	173
309.1174	337
310.1214	39
327.1277	76
399.2884	34
417.2986	175
418.3033	45
435.3089	89
451.3042	75
471.1716	72
489.1814	26
579.3511	25
597.3638	136
598.3656	42
759.418	25
777.4279	49
794.4547	999
