Mass spectrum: 5-trans U-44069; ESI-TOF; MS2; CE: 6.0000000;  [M+H]+
Name: 5-trans U-44069
Class: NA
Formula: C21H34O4
Exact mass: 350.24571
SMILES: CCCCC[C@H](O)/C=C/[C@H]1C(CO2)CC2[C@@H]1C/C=C/CCCC(O)=O
InChI: InChI=1S/C21H34O4/c1-2-3-6-9-17(22)12-13-18-16-14-20(25-15-16)19(18)10-7-4-5-8-11-21(23)24/h4,7,12-13,16-20,22H,2-3,5-6,8-11,14-15H2,1H3,(H,23,24)/b7-4+,13-12+/t16?,17-,18-,19+,20?/m0/s1
Instrument: waters xevo g2 TOF
Instrument type: ESI-TOF
Ms type: MS2
Ion mode: POSITIVE
Ionization: ESI
Collision energy: 6.0000000
Column name: Acquity CSHC18
Retention time: 4.214 min
Base peak: 351.25371
Precursor m/z: 351.25371
Precursor type: [M+H]+
m/z	relative intensity
81.07	3
105.0531	1
109.1008	3
119.0862	7
121.1012	3
123.1177	2
131.0864	17
133.1019	10
135.1009	2
143.0861	2
147.1177	9
149.1126	1
161.1324	5
163.0755	22
164.0803	4
171.1178	6
175.1486	5
185.0719	2
187.1495	45
188.1536	4
189.1658	27
193.124	5
199.111	23
201.164	29
202.1652	1
203.1597	3
205.123	12
207.1368	11
213.1279	14
215.1615	8
219.1353	14
221.1527	10
227.1439	6
231.1018	9
233.1527	5
245.1531	16
253.1948	5
255.2098	6
259.1693	7
267.2106	8
269.2247	17
270.2266	3
279.2102	38
280.2113	4
285.2203	41
286.2221	8
287.2303	8
297.222	150
298.2248	32
303.2313	232
304.2325	46
305.2472	12
315.2321	999
316.2346	242
317.2367	23
333.2451	648
334.2458	130
335.249	9
