Mass spectrum: 16-phenyl tetranor Prostaglandin E2; ESI-TOF; MS2; CE: 0.6458333;  [M+H]+
Name: 16-phenyl tetranor Prostaglandin E2
Class: NA
Formula: C22H28O5
Exact mass: 372.19367
SMILES: O=C1[C@H](C/C=C\CCCC(O)=O)[C@@H](/C=C/[C@@H](O)CC2=CC=CC=C2)[C@H](O)C1
InChI: InChI=1S/C22H28O5/c23-17(14-16-8-4-3-5-9-16)12-13-19-18(20(24)15-21(19)25)10-6-1-2-7-11-22(26)27/h1,3-6,8-9,12-13,17-19,21,23,25H,2,7,10-11,14-15H2,(H,26,27)/b6-1-,13-12+/t17-,18-,19-,21-/m1/s1
Instrument: waters xevo g2 TOF
Instrument type: ESI-TOF
Ms type: MS2
Ion mode: POSITIVE
Ionization: ESI
Collision energy: 0.6458333
Column name: Acquity CSHC18
Retention time: 3.183 min
Base peak: 373.20167
Precursor m/z: 373.20167
Precursor type: [M+H]+
m/z	relative intensity
79.0537	51
91.0554	999
105.071	169
115.0551	120
117.071	808
121.0651	34
123.0802	32
128.0642	157
129.0703	326
131.0875	139
141.0707	288
143.087	317
145.1025	52
147.0831	36
154.0761	37
155.0867	208
157.1009	52
161.0975	50
165.0709	91
166.0768	78
167.0855	241
169.1021	168
171.0811	5
173.097	53
179.0886	180
181.1018	231
185.0987	48
187.1103	54
189.0912	5
191.0839	90
192.0907	35
193.1002	150
195.0787	29
197.5723	5
201.1261	5
203.1069	5
205.1025	139
207.1165	95
209.0946	5
215.1061	47
217.1025	158
223.1124	5
231.0932	95
233.116	5
235.1126	171
236.1165	16
245.1231	29
247.1487	94
249.1662	5
251.1264	5
253.1239	5
255.1238	39
259.1487	105
265.1598	5
266.1639	5
267.1701	5
273.1635	79
275.1437	56
278.0409	33
282.0324	171
283.1672	5
284.1681	5
285.1824	5
291.1753	48
293.1534	41
294.1587	5
295.1666	5
301.1591	177
302.16	5
309.1904	5
311.165	5
319.1692	286
320.173	52
335.0564	5
337.1808	5
338.1838	5
339.187	5
355.191	8
356.1938	5
374.1633	5
374.6656	5
375.1267	48
