Mass spectrum: 15-keto Latanoprost (free acid); ESI-TOF; MS2; CE: 0.6458333;  [M+H]+
Name: 15-keto Latanoprost (free acid)
Class: NA
Formula: C23H32O5
Exact mass: 388.22497
SMILES: O[C@@H]1[C@H](C/C=C\CCCC(O)=O)[C@@H](CCC(CCC2=CC=CC=C2)=O)[C@H](O)C1
InChI: InChI=1S/C23H32O5/c24-18(13-12-17-8-4-3-5-9-17)14-15-20-19(21(25)16-22(20)26)10-6-1-2-7-11-23(27)28/h1,3-6,8-9,19-22,25-26H,2,7,10-16H2,(H,27,28)/b6-1-/t19-,20-,21+,22-/m1/s1
Instrument: waters xevo g2 TOF
Instrument type: ESI-TOF
Ms type: MS2
Ion mode: POSITIVE
Ionization: ESI
Collision energy: 0.6458333
Column name: Acquity CSHC18
Retention time: 3.556 min
Base peak: 389.23297
Precursor m/z: 389.23297
Precursor type: [M+H]+
m/z	relative intensity
103.0551	16
105.071	999
106.0744	67
117.0709	169
120.0903	5
121.1009	7
128.0628	29
133.0662	65
142.0754	19
143.0861	101
147.0826	18
149.0603	5
154.0775	19
167.0718	26
169.1019	333
170.1057	32
175.1475	17
183.1046	20
185.1147	190
186.1353	21
187.0776	203
188.1025	32
195.1095	34
203.144	59
205.1226	386
206.1258	49
207.1171	42
209.1316	16
217.1119	6
221.1431	29
222.0323	4
225.1259	26
231.1363	13
251.1428	23
259.0637	24
273.1687	5
275.1903	7
299.1807	34
300.1829	7
317.1971	69
318.1923	14
335.201	129
336.2033	31
353.2111	82
354.2137	20
381.1083	6
