Mass spectrum: 3-Aminoisobutanoic acid; ESI-TOF; MS2; CE: 6.0000000;  [M+H]+
Name: 3-Aminoisobutanoic acid
Class: NA
Formula: C4H9NO2
Exact mass: 103.06333
SMILES: CC(CN)C(O)=O
InChI: InChI=1S/C4H9NO2/c1-3(2-5)4(6)7/h3H,2,5H2,1H3,(H,6,7)
Instrument: waters xevo g2 TOF
Instrument type: ESI-TOF
Ms type: MS2
Ion mode: POSITIVE
Ionization: ESI
Collision energy: 6.0000000
Column name: Acquity CSHC18
Retention time: 0.485 min
Base peak: 104.07133
Precursor m/z: 104.07133
Precursor type: [M+H]+
m/z	relative intensity
56.9428	3
72.9385	3
86.0614	38
92.9674	24
96.9617	999
98.9636	3
104.0713	493
115.9657	61
126.0538	40
129.8804	3
139.9643	528
145.0178	3
149.9611	249
151.9231	3
151.9234	3
160.9529	26
162.9919	34
170.8644	3
172.8619	3
183.9841	45
202.8721	3
205.9887	63
213.8879	16
231.0191	27
245.0818	24
258.1708	3
258.8866	114
278.0549	19
356.1379	17
363.1088	308
364.1081	39
385.09	202
418.0384	3
559.0712	17
