Mass spectrum: N-Acetylaspartic acid; LC-ESI-QTOF; MS2; CE: 30;  [M-H]-
Name: N-Acetylaspartic acid
Class: NA
Formula: C6H9NO5
Exact mass: 175.0481
SMILES: CC(=O)NC(CC(=O)O)C(=O)O
InChI: InChI=1S/C6H9NO5/c1-3(8)7-4(6(11)12)2-5(9)10/h4H,2H2,1H3,(H,7,8)(H,9,10)(H,11,12)
Instrument: impact II
Instrument type: LC-ESI-QTOF
Ms type: MS2
Ion mode: NEGATIVE
Ionization: ESI
Collision energy: 30
Column name: Acquity CSHC18
Retention time: 1.839 min
Base peak: 174.0401
Precursor m/z: 174.0401
Precursor type: [M-H]-
m/z	relative intensity
70.0305	3
71.0148	20
72.0097	3
84.0459	16
88.0409	999
88.0515	23
89.0444	37
96.9933	21
112.0405	6
114.0196	8
115.0037	27
130.0506	7
132.0296	5
