Mass spectrum: Nicotinuric acid; LC-ESI-ITFT; MS2; CE: 40;  [M+H]+
Name: Nicotinuric acid
Class: Organic acids and derivatives; Carboxylic acids and derivatives; Amino acids, peptides, and analogues
Formula: C8H8N2O3
Exact mass: 180.05349
SMILES: OC(=O)CNC(=O)C1=CN=CC=C1
InChI: InChI=1S/C8H8N2O3/c11-7(12)5-10-8(13)6-2-1-3-9-4-6/h1-4H,5H2,(H,10,13)(H,11,12)
Instrument: Thermo Scientific Q-Exactive Focus
Instrument type: LC-ESI-ITFT
Ms type: MS2
Ion mode: POSITIVE
Ionization: ESI
Collision energy: 40
Column name: Acquity CSHC18
Retention time: 1.463 min
Base peak: 181.06078
Precursor m/z: 181.06078
Precursor type: [M+H]+
m/z	relative intensity
53.0391	94
78.0342	78
79.042	999
80.0498	984
96.0446	472
107.0605	232
108.0445	188
111.0316	465
117.0448	90
135.0552	211
