Mass spectrum: URACIL; LC-ESI-QFT; MS2; CE: 30eV;  [M+H]+
Name: URACIL
Class: NA
Formula: C4H4N2O2
Exact mass: 112.02728
SMILES: O=C1NC=CC(=O)N1
InChI: InChI=1S/C4H4N2O2/c7-3-1-2-5-4(8)6-3/h1-2H,(H2,5,6,7,8)
Instrument: Q-Exactive Orbitrap, Thermo Scientfic; Ultimate 3000 HPLC, Thermo Scientfic
Instrument type: LC-ESI-QFT
Ms type: MS2
Ion mode: POSITIVE
Ionization: ESI
Collision energy: 30eV
Column name: Acquity CSHC18
Retention time: 0.693 min
Base peak: 113.0346
Precursor m/z: 113.0346
Precursor type: [M+H]+
Precursor intensity: 192
m/z	relative intensity
50.0001	1
53.1967	1
55.7934	1
57.0343	2
58.066	2
67.0298	2
67.055	12
67.8078	2
68.0138	8
69.0455	21
70.0295	999
71.0328	13
71.0498	5
71.93	10
72.9379	38
85.0654	3
90.9484	29
94.0405	2
95.0246	132
95.0497	11
95.0862	2
96.0086	636
96.0279	9
97.0118	10
108.9586	7
112.0511	601
113.0543	102
113.0602	12
113.9643	4
114.032	10
114.0383	63
114.0668	19
114.0916	22
131.9744	3
