Mass spectrum: Betaine; LC-ESI-ITFT; MS2; CE: 10;  [M+H]+
Name: Betaine
Class: Organic acids and derivatives; Carboxylic acids and derivatives; Amino acids, peptides, and analogues
Formula: C5H11NO2
Exact mass: 117.07898
SMILES: C[N+](C)(C)CC([O-])=O
InChI: InChI=1S/C5H11NO2/c1-6(2,3)4-5(7)8/h4H2,1-3H3
Instrument: Thermo Scientific Q-Exactive Focus
Instrument type: LC-ESI-ITFT
Ms type: MS2
Ion mode: POSITIVE
Ionization: ESI
Collision energy: 10
Column name: Acquity CSHC18
Retention time: 0.348 min
Base peak: 118.08626
Precursor m/z: 118.08626
Precursor type: [M+H]+
m/z	relative intensity
52.0655	1
58.0657	70
59.0735	81
75.3718	1
92.5225	1
97.6582	1
99.188	1
118.0865	999
134.9841	1
138.4912	1
