Mass spectrum: p-Coumaric acid; LC-ESI-QTOF; MS2; CE: 50eV;  [M-H]-
Name: p-Coumaric acid
Class: Phenylpropanoid
Formula: C9H8O3
Exact mass: 164.0473
SMILES: C1=CC(=CC=C1C=CC(=O)O)O
InChI: InChI=1S/C9H8O3/c10-8-4-1-7(2-5-8)3-6-9(11)12/h1-6,10H,(H,11,12)
Instrument: TIMS-TOF Pro, Bruker Daltonik; Elute UHPLC System, Bruker Daltonik
Instrument type: LC-ESI-QTOF
Ms type: MS2
Ion mode: NEGATIVE
Ionization: ESI
Collision energy: 50eV
Column name: Acquity CSHC18
Retention time: 5.061 min
Base peak: 163.0365
Precursor m/z: 163.0365
Precursor type: [M-H]-
Precursor intensity: 809.44
m/z	relative intensity
91.0526	306
93.0327	735
119.0466	999
120.0534	310
