Mass spectrum: Ginkgolic acid C15:1; LC-ESI-QFT; MS2; CE: 15,30,45 (NCE);  [M+H]+
Name: Ginkgolic acid C15:1
Class: NA
Formula: C22H34O3
Exact mass: 346.2508
SMILES: CCCCCC\\C=C\\CCCCCCCC1=C(C(O)=O)C(O)=CC=C1
InChI: InChI=1S/C22H34O3/c1-2-3-4-5-6-7-8-9-10-11-12-13-14-16-19-17-15-18-20(23)21(19)22(24)25/h7-8,15,17-18,23H,2-6,9-14,16H2,1H3,(H,24,25)/b8-7+
Instrument: QE Focus, Thermo Scientfic; UPLC I-Class, Waters
Instrument type: LC-ESI-QFT
Ms type: MS2
Ion mode: POSITIVE
Ionization: ESI
Collision energy: 15,30,45 (NCE)
Column name: Acquity CSHC18
Retention time: 6.535 min
Base peak: 347.2581
Precursor m/z: 347.2581
Precursor type: [M+H]+
Precursor intensity: 11654540
m/z	relative intensity
105.0519	168
107.0679	607
133.0466	794
161.0777	999
