Mass spectrum: Tricetin; LC-ESI-QTOF; MS2; CE: 50eV;  [M-H]-
Name: Tricetin
Class: Falvone
Formula: C15H10O7
Exact mass: 302.0427
SMILES: C1=C(C=C(C(=C1O)O)O)C2=CC(=O)C3=C(C=C(C=C3O2)O)O
InChI: InChI=1S/C15H10O7/c16-7-3-8(17)14-9(18)5-12(22-13(14)4-7)6-1-10(19)15(21)11(20)2-6/h1-5,16-17,19-21H
Instrument: TIMS-TOF Pro, Bruker Daltonik; Elute UHPLC System, Bruker Daltonik
Instrument type: LC-ESI-QTOF
Ms type: MS2
Ion mode: NEGATIVE
Ionization: ESI
Collision energy: 50eV
Column name: Acquity CSHC18
Retention time: 6.049 min
Base peak: 301.0312
Precursor m/z: 301.0312
Precursor type: [M-H]-
Precursor intensity: 200793.3
m/z	relative intensity
24.0268	2
36.7502	2
41.0015	6
49.0082	3
51.0208	3
55.402	2
55.8654	2
58.528	1
63.0236	24
64.0302	2
65.0016	74
65.3007	1
66.9172	2
68.9982	5
73.0075	2
75.0232	18
76.0276	2
77.0387	42
78.0676	3
83.0125	38
84.0154	1
91.0175	3
93.0322	15
95.012	6
100.2462	1
103.0183	21
104.0242	4
105.0333	35
106.0376	3
107.0124	23
108.0326	2
111.7731	3
113.2382	2
114.4595	2
117.0311	7
119.0456	2
120.0179	8
121.0288	42
122.5147	1
123.0056	4
126.0264	2
131.0114	4
132.053	2
133.0278	5
135.0431	5
139.0521	2
142.4171	4
145.0256	6
147.0415	2
148.0125	15
148.5558	3
149.0232	308
149.1349	1
149.2138	3
149.3053	2
149.393	2
149.5964	2
149.7748	2
150.0258	38
150.7644	3
151.0026	23
152.006	2
154.879	5
156.6955	3
159.047	5
160.0468	2
161.0237	3
162.0658	3
163.6413	4
169.3233	2
171.0428	3
173.0572	2
176.2956	2
179.7288	1
183.0393	2
183.8551	1
185.9993	3
190.0226	3
191.0346	5
192.0384	2
198.9161	2
215.0345	6
217.0485	2
226.0246	1
240.0337	3
254.0165	1
256.0359	1
300.6264	3
300.744	2
300.8342	1
300.9163	2
301.0093	999
301.2318	3
301.3527	4
301.5211	8
