Mass spectrum: 7-methylthioheptyl glucosinolate; LC-ESI-QTOF; MS2; CE: 27.16;  [M-H]-
Name: 7-methylthioheptyl glucosinolate
Class: NA
Formula: C15H29NO9S3
Exact mass: 463.1004
SMILES: CSCCCCCCCC(=NOS(=O)(=O)O)SC1C(C(C(C(O1)CO)O)O)O
InChI: InChI=1S/C15H29NO9S3/c1-26-8-6-4-2-3-5-7-11(16-25-28(21,22)23)27-15-14(20)13(19)12(18)10(9-17)24-15/h10,12-15,17-20H,2-9H2,1H3,(H,21,22,23)
Instrument: Bruker MicrOTOF-Q
Instrument type: LC-ESI-QTOF
Ms type: MS2
Ion mode: NEGATIVE
Ionization: ESI
Collision energy: 27.16
Column name: Acquity CSHC18
Retention time: NA
Base peak: 462.0932
Precursor m/z: 462.0932
Precursor type: [M-H]-
m/z	relative intensity
47.2702	4
50.3419	6
52.4244	4
54.4263	4
55.4217	4
57.779	5
60.338	4
61.3709	4
62.9464	5
63.9801	5
64.6292	3
65.2753	4
65.7447	5
66.5211	3
68.0288	3
69.8324	3
70.3903	4
70.9594	3
71.6771	3
72.5679	4
73.8591	4
76.066	3
77.568	4
78.6614	6
80.0541	13
81.1295	6
81.8228	8
82.662	3
83.1325	9
84.5891	4
86.7154	5
88.5474	3
89.8292	4
91.4378	5
92.733	5
93.3369	2
94.234	3
97.7443	349
102.9862	5
104.9994	9
105.9601	10
111.9909	68
113.0235	34
113.9295	5
114.9871	4
117.0119	33
117.7867	3
119.0034	6
122.1621	3
123.0019	2
125.0267	7
127.0427	10
127.8738	164
128.9724	81
129.9207	38
131.0381	7
134.0316	7
135.0469	27
138.9716	521
140.1486	8
140.9659	20
143.0346	29
145.0496	41
146.0487	6
150.97	17
153.0248	8
154.441	2
154.9397	6
155.7309	3
157.0725	2
158.5301	2
161.043	5
161.6738	3
163.0627	15
164.0532	3
168.981	77
170.9754	4
175.1904	3
177.0225	10
178.024	8
179.0609	3
180.0295	3
181.6879	4
189.0921	4
190.3591	3
192.305	2
194.9832	82
196.0367	16
197.0238	3
198.9936	113
200.0017	8
200.9881	5
202.0711	15
204.1626	32
205.1911	478
206.2495	59
207.0726	69
208.0736	8
209.1318	2
211.0693	5
213.0314	2
214.1145	3
215.5009	2
217.0785	6
219.1539	4
220.4812	258
221.8924	90
222.9985	8
224.0766	3
225.0054	3
227.0228	102
228.1015	3
229.0154	8
231.1269	2
235.136	5
239.042	334
239.4966	2
240.0434	29
240.919	132
241.7635	10
243.0039	15
244.0832	15
247.938	4
257.0608	27
258.8005	999
259.4991	8
260.1887	114
261.0115	183
262.0938	18
266.0525	135
268.0599	6
269.0905	278
269.9368	48
271.0329	128
272.0393	6
274.1127	6
275.3398	346
276.9887	151
277.9928	14
284.0628	77
285.0695	7
286.0544	5
290.9826	20
299.088	11
300.0334	5
301.0433	5
315.1606	2
382.1372	30
383.132	2
384.1442	2
462.0926	291
463.0932	74
464.0923	23
