Mass spectrum: Glucosamine; LC-ESI-ITFT; MS2; CE: 20;  [M+H]+
Name: Glucosamine
Class: Organic oxygen compounds; Organooxygen compounds; Carbohydrates and carbohydrate conjugates
Formula: C6H13NO5
Exact mass: 179.07937
SMILES: N[C@H]1C(O)O[C@H](CO)[C@@H](O)[C@@H]1O
InChI: InChI=1S/C6H13NO5/c7-3-5(10)4(9)2(1-8)12-6(3)11/h2-6,8-11H,1,7H2/t2-,3-,4-,5-,6?/m1/s1
Instrument: Thermo Scientific Q-Exactive Focus
Instrument type: LC-ESI-ITFT
Ms type: MS2
Ion mode: POSITIVE
Ionization: ESI
Collision energy: 20
Column name: Acquity CSHC18
Retention time: 0.630 min
Base peak: 180.08665
Precursor m/z: 180.08665
Precursor type: [M+H]+
m/z	relative intensity
56.0501	121
60.045	515
61.029	117
69.034	160
70.0656	179
72.0449	999
84.0448	546
85.0288	306
96.0447	113
98.0604	150
