Mass spectrum: Nonadecanoic acid; LC-ESI-ITFT; MS2; CE: 100;  [M-H]-
Name: Nonadecanoic acid
Class: Lipids and lipid-like molecules; Fatty Acyls; Fatty acids and conjugates
Formula: C19H38O2
Exact mass: 298.28718
SMILES: CCCCCCCCCCCCCCCCCCC(O)=O
InChI: InChI=1S/C19H38O2/c1-2-3-4-5-6-7-8-9-10-11-12-13-14-15-16-17-18-19(20)21/h2-18H2,1H3,(H,20,21)
Instrument: Thermo Scientific Q-Exactive Focus
Instrument type: LC-ESI-ITFT
Ms type: MS2
Ion mode: NEGATIVE
Ionization: ESI
Collision energy: 100
Column name: Acquity CSHC18
Retention time: 2.581 min
Base peak: 297.27991
Precursor m/z: 297.27991
Precursor type: [M-H]-
m/z	relative intensity
59.9661	8
75.961	92
79.9561	999
93.0001	60
93.0334	52
94.9794	31
119.0491	79
152.9671	10
154.9463	13
154.9588	32
