Mass spectrum: 5'-DEOXYADENOSINE; LC-ESI-QTOF; MS2; CE: 10;  [M+H]+
Name: 5'-DEOXYADENOSINE
Class: NA
Formula: C10H13N5O3
Exact mass: 251.1018
SMILES: C[C@H]1O[C@H]([C@H](O)[C@@H]1O)N1C=NC2=C(N)N=CN=C12
InChI: InChI=1S/C10H13N5O3/c1-4-6(16)7(17)10(18-4)15-3-14-5-8(11)12-2-13-9(5)15/h2-4,6-7,10,16-17H,1H3,(H2,11,12,13)/t4-,6-,7-,10-/m1/s1
Instrument: Agilent 6530Â Q-TOF LC/MS
Instrument type: LC-ESI-QTOF
Ms type: MS2
Ion mode: POSITIVE
Ionization: ESI
Collision energy: 10
Column name: NA
Retention time: 0.200 min
Base peak: 252.10971
Precursor m/z: 252.10971
Precursor type: [M+H]+
Precursor intensity: 146.5
m/z	relative intensity
117.053	15
136.0606	16
146.0986	121
252.1082	999
