Mass spectrum: (-)-Bilobalide; LC-ESI-QFT; MS2; CE: 15,30,45 (NCE);  [M+H]+
Name: (-)-Bilobalide
Class: NA
Formula: C15H18O8
Exact mass: 326.1002
SMILES: CC(C)(C)C1(O)CC2OC(=O)CC22C(=O)OC3OC(=O)C(O)C123
InChI: InChI=1S/C15H18O8/c1-12(2,3)14(20)4-6-13(5-7(16)21-6)10(19)23-11-15(13,14)8(17)9(18)22-11/h6,8,11,17,20H,4-5H2,1-3H3
Instrument: QE Focus, Thermo Scientfic; UPLC I-Class, Waters
Instrument type: LC-ESI-QFT
Ms type: MS2
Ion mode: POSITIVE
Ionization: ESI
Collision energy: 15,30,45 (NCE)
Column name: Acquity CSHC18
Retention time: 1.487 min
Base peak: 327.1079
Precursor m/z: 327.1079
Precursor type: [M+H]+
Precursor intensity: 1795131
m/z	relative intensity
50.8699	46
57.0708	761
62.4115	41
66.8049	49
67.2732	46
71.0532	42
81.3352	46
92.6348	53
95.0494	48
98.9845	219
105.07	64
111.0808	448
112.2235	46
119.0857	51
121.0651	92
133.101	125
135.0446	108
135.1169	230
145.1008	235
147.0813	51
149.0598	444
151.0393	85
153.0179	165
161.0961	217
163.1121	241
167.0702	64
171.0808	51
173.096	439
175.0765	67
189.0916	399
191.1068	229
201.0917	108
207.1013	223
217.0861	310
225.0393	65
235.0961	199
245.0807	97
251.0547	62
309.096	838
327.1078	999
