Mass spectrum: Cholesterol; APCI-ITFT; MS2; CE: 35 CID;  [M+H-H2O]+
Name: Cholesterol
Class: NA
Formula: C27H46O
Exact mass: 386.35487
SMILES: CC(C)CCCC(C)C1CCC2C1(CCC3C2CC=C4C3(CCC(C4)O)C)C
InChI: InChI=1S/C27H46O/c1-18(2)7-6-8-19(3)23-11-12-24-22-10-9-20-17-21(28)13-15-26(20,4)25(22)14-16-27(23,24)5/h9,18-19,21-25,28H,6-8,10-17H2,1-5H3
Instrument: Orbitrap Elite
Instrument type: APCI-ITFT
Ms type: MS2
Ion mode: POSITIVE
Ionization: APCI
Collision energy: 35 CID
Column name: Acquity CSHC18
Retention time: 0.109 min
Base peak: 369.35090
Precursor m/z: 369.35090
Precursor type: [M+H-H2O]+
Precursor intensity: 918730700
m/z	relative intensity
77.0382	5
79.0536	15
81.0697	160
83.0851	102
85.1007	21
91.0539	18
93.0696	61
95.0848	264
95.4441	4
97.1006	98
105.0698	63
107.0853	85
109.101	319
111.1161	72
119.0847	74
121.1007	134
123.117	145
125.1326	28
131.0847	10
133.1005	114
135.1168	358
137.1314	65
139.1474	6
145.1009	26
147.1165	574
149.1318	187
151.1476	39
159.1169	46
161.1325	493
163.1476	89
165.1641	38
173.1322	36
175.1471	207
177.1629	34
179.1786	39
187.1487	42
189.1642	112
191.1787	24
193.1953	54
201.1629	86
203.1791	95
205.1953	60
207.2114	28
213.1609	5
215.1799	156
217.1946	66
219.2099	50
221.2257	14
229.1941	93
231.2109	18
233.2261	95
235.2405	11
241.1964	4
243.2086	122
245.226	39
247.2419	71
255.2105	9
257.2245	97
259.2408	142
261.2587	33
271.2418	16
273.2583	81
275.2708	7
285.2578	16
287.2717	94
299.2707	18
301.287	6
313.2866	25
327.3004	5
368.3363	55
369.3482	999
