Mass spectrum: p-Hydroxyphenylacetic acid; LC-ESI-ITFT; MS2; CE: 10;  [M-H]-
Name: p-Hydroxyphenylacetic acid
Class: Benzenoids; Phenols; 1-hydroxy-2-unsubstituted benzenoids
Formula: C8H8O3
Exact mass: 152.04734
SMILES: OC(=O)CC1=CC=C(O)C=C1
InChI: InChI=1S/C8H8O3/c9-7-3-1-6(2-4-7)5-8(10)11/h1-4,9H,5H2,(H,10,11)
Instrument: Thermo Scientific Q-Exactive Focus
Instrument type: LC-ESI-ITFT
Ms type: MS2
Ion mode: NEGATIVE
Ionization: ESI
Collision energy: 10
Column name: Acquity CSHC18
Retention time: 0.365 min
Base peak: 151.04007
Precursor m/z: 151.04007
Precursor type: [M-H]-
m/z	relative intensity
92.515	16
93.0334	28
106.0413	35
106.9918	58
107.0491	999
108.0205	16
121.0284	37
122.9509	127
123.044	45
151.039	521
