Mass spectrum: Diacetyl-23-keto-pseudodulciden B; APCI-ITFT; MS2; CE: CID 35;  [M-H]-
Name: Diacetyl-23-keto-pseudodulciden B
Class: NA
Formula: C31H47NO5
Exact mass: 513.34542
SMILES: C[C@@]12[C@](CC[C@]3([H])[C@@]([H])2CC[C@@]4(C)[C@]3([H])C[C@@]5([H])[C@]4([H])[C@H](C)[C@@]6(N(C(C)=O)C[C@@H](C)CC6=O)O5)([H])C[C@@H](OC(C)=O)CC1
InChI: InChI=1S/C31H47NO5/c1-17-13-27(35)31(32(16-17)19(3)33)18(2)28-26(37-31)15-25-23-8-7-21-14-22(36-20(4)34)9-11-29(21,5)24(23)10-12-30(25,28)6/h17-18,21-26,28H,7-16H2,1-6H3/t17-,18-,21-,22-,23+,24-,25+,26-,28-,29-,30-,31+/m0/s1
Instrument: Orbitrap Elite
Instrument type: APCI-ITFT
Ms type: MS2
Ion mode: NEGATIVE
Ionization: APCI
Collision energy: CID 35
Column name: Acquity CSHC18
Retention time: 0.136 min
Base peak: 512.33690
Precursor m/z: 512.33690
Precursor type: [M-H]-
Precursor intensity: 12339.13
m/z	relative intensity
147.5785	45
161.212	39
167.8602	39
169.3398	37
181.1042	50
194.0091	46
205.9239	45
241.6881	46
276.065	47
306.1908	46
334.3304	48
350.4718	69
399.2375	51
433.4776	66
452.3156	999
470.3243	203
494.3004	74
