Mass spectrum: Fructose 6-phosphate; LC-ESI-ITFT; MS2; CE: 30;  [M-H]-
Name: Fructose 6-phosphate
Class: Organic oxygen compounds; Organooxygen compounds; Carbohydrates and carbohydrate conjugates
Formula: C6H13O9P
Exact mass: 260.02972
SMILES: OCC(=O)[C@@H](O)[C@H](O)[C@H](O)COP(O)(O)=O
InChI: InChI=1S/C6H13O9P/c7-1-3(8)5(10)6(11)4(9)2-15-16(12,13)14/h4-7,9-11H,1-2H2,(H2,12,13,14)/t4-,5-,6-/m1/s1
Instrument: Thermo Scientific Q-Exactive Focus
Instrument type: LC-ESI-ITFT
Ms type: MS2
Ion mode: NEGATIVE
Ionization: ESI
Collision energy: 30
Column name: Acquity CSHC18
Retention time: 0.927 min
Base peak: 259.02243
Precursor m/z: 259.02243
Precursor type: [M-H]-
m/z	relative intensity
59.0126	1
71.0126	21
73.0283	2
78.9578	999
94.8752	1
96.9684	997
101.0231	1
102.9476	7
138.9792	18
268.4218	1
