Mass spectrum: CYTOSINE; LC-ESI-QTOF; MS2; CE: 10;  [M+H]+
Name: CYTOSINE
Class: NA
Formula: C4H5N3O
Exact mass: 111.0433
SMILES: NC1=CC=NC(=O)N1
InChI: InChI=1S/C4H5N3O/c5-3-1-2-6-4(8)7-3/h1-2H,(H3,5,6,7,8)
Instrument: Agilent 6530Â Q-TOF LC/MS
Instrument type: LC-ESI-QTOF
Ms type: MS2
Ion mode: POSITIVE
Ionization: ESI
Collision energy: 10
Column name: NA
Retention time: 0.200 min
Base peak: 112.05148
Precursor m/z: 112.05148
Precursor type: [M+H]+
Precursor intensity: 68.5
m/z	relative intensity
40.0195	23
42.0336	27
52.0193	32
67.028	41
68.0134	42
69.0448	106
94.0403	115
95.024	330
112.0503	999
