Mass spectrum: URIDINE; LC-ESI-QTOF; MS2; CE: 20;  [M-H]-
Name: URIDINE
Class: NA
Formula: C9H12N2O6
Exact mass: 244.06954
SMILES: OC[C@H]1O[C@H]([C@H](O)[C@@H]1O)N1C=CC(=O)NC1=O
InChI: InChI=1S/C9H12N2O6/c12-3-4-6(14)7(15)8(17-4)11-2-1-5(13)10-9(11)16/h1-2,4,6-8,12,14-15H,3H2,(H,10,13,16)/t4-,6-,7-,8-/m1/s1
Instrument: Agilent 6530Â Q-TOF LC/MS
Instrument type: LC-ESI-QTOF
Ms type: MS2
Ion mode: NEGATIVE
Ionization: ESI
Collision energy: 20
Column name: NA
Retention time: 0.200 min
Base peak: 243.05776
Precursor m/z: 243.05776
Precursor type: [M-H]-
Precursor intensity: 179
m/z	relative intensity
42.0151	124
82.0321	156
110.0248	800
111.0376	999
