Mass spectrum: Tomatidine; APCI-ITFT; MS2; CE: CID 45;  [M-H]-
Name: Tomatidine
Class: NA
Formula: C27H45NO2
Exact mass: 415.34503
SMILES: CC1CCC2(C(C3C(O2)CC4C3(CCC5C4CCC6C5(CCC(C6)O)C)C)C)NC1
InChI: InChI=1S/C27H45NO2/c1-16-7-12-27(28-15-16)17(2)24-23(30-27)14-22-20-6-5-18-13-19(29)8-10-25(18,3)21(20)9-11-26(22,24)4/h16-24,28-29H,5-15H2,1-4H3
Instrument: Orbitrap Elite
Instrument type: APCI-ITFT
Ms type: MS2
Ion mode: NEGATIVE
Ionization: APCI
Collision energy: CID 45
Column name: Acquity CSHC18
Retention time: 0.126 min
Base peak: 414.33860
Precursor m/z: 414.33860
Precursor type: [M-H]-
Precursor intensity: 168319.3
m/z	relative intensity
261.1336	26
271.2065	62
367.3874	116
370.2744	104
371.3315	23
382.2742	20
385.2973	30
386.3445	58
394.3112	412
395.2769	123
396.3281	999
397.3281	39
414.3333	34
