Mass spectrum: L-kynurenine; LC-ESI-QTOF; MS2; CE: 15;  [M-H]-
Name: L-kynurenine
Class: NA
Formula: C10H12N2O3
Exact mass: 208.0848
SMILES: C1=CC=C(C(=C1)C(=O)CC(C(=O)O)N)N
InChI: InChI=1S/C10H12N2O3/c11-7-4-2-1-3-6(7)9(13)5-8(12)10(14)15/h1-4,8H,5,11-12H2,(H,14,15)
Instrument: Bruker MicrOTOF-Q
Instrument type: LC-ESI-QTOF
Ms type: MS2
Ion mode: NEGATIVE
Ionization: ESI
Collision energy: 15
Column name: Acquity CSHC18
Retention time: NA
Base peak: 207.0775
Precursor m/z: 207.0775
Precursor type: [M-H]-
m/z	relative intensity
44.9513	37
46.1519	39
48.1654	55
49.4012	41
50.6584	56
53.3064	30
54.0399	32
55.1319	40
56.391	44
56.9703	40
58.3531	37
59.9031	48
61.2632	81
61.7745	73
62.4746	44
63.1251	31
64.0404	36
67.235	45
67.8104	30
68.3715	39
69.6871	37
70.6486	44
71.3486	47
71.9627	28
72.7106	34
73.3051	45
74.5846	32
75.0692	48
75.7088	40
76.2675	60
79.3349	51
79.9272	39
80.6048	41
82.1645	47
83.2537	36
84.763	51
86.1262	37
87.9322	41
89.2416	56
89.8247	41
90.607	41
91.3391	53
92.0506	64
92.7969	48
94.4444	43
95.1072	45
95.758	40
96.5186	43
97.7389	39
100.6829	44
101.37	43
104.8673	49
106.9622	27
108.1297	45
108.5747	51
109.3527	28
110.2549	28
110.8461	45
111.7889	32
112.6535	43
113.6676	48
116.0532	609
116.6379	32
117.0544	113
117.8538	963
118.8659	139
120.8353	34
121.9168	49
123.6817	49
126.442	45
127.98	211
129.0547	121
130.9132	281
132.0399	153
133.2917	43
134.1314	92
135.1449	52
138.0825	47
138.9576	49
140.5889	36
141.476	28
141.9337	49
143.8545	999
144.9183	486
146.0315	632
147.2614	79
148.1135	35
152.927	27
162.986	27
167.8048	58
172.0439	82
180.5917	42
190.0255	61
202.9221	26
250.632	44
302.6118	34
322.1482	30
402.6689	32
423.6824	45
441.3896	27
520.9201	31
527.0466	60
540.2544	41
594.0796	37
596.2218	47
596.9665	34
605.5207	43
654.0428	52
662.3752	28
707.1834	31
729.6505	27
792.0199	44
806.1336	30
824.1268	39
875.2003	32
901.3266	35
944.4102	30
