Mass spectrum: Cyanidin 3-O-[2-O-(2-O-(sinapoyl)-xylosyl)-6-O-(p-coumaroyl))-glucoside] 5-O-[6-O-(malonyl) glucoside]; LC-ESI-QTOF; MS2; CE: 53.63;  [M]+
Name: Cyanidin 3-O-[2-O-(2-O-(sinapoyl)-xylosyl)-6-O-(p-coumaroyl))-glucoside] 5-O-[6-O-(malonyl) glucoside]
Class: NA
Formula: [C55H57O29]+
Exact mass: 1181.2980
SMILES: COC1=CC(=CC(=C1O)OC)C=CC(=O)OC2C(C(COC2OC3C(C(C(OC3OC4=C([O+]=C5C=C(C=C(C5=C4)OC6C(C(C(C(O6)COC(=O)CC(=O)O)O)O)O)O)C7=CC(=C(C=C7)O)O)COC(=O)C=CC8=CC=C(C=C8)O)O)O)O)O
InChI: InChI=1S/C55H56O29/c1-73-34-13-24(14-35(74-2)44(34)67)6-12-41(64)83-51-43(66)31(60)20-77-54(51)84-52-48(71)46(69)38(21-75-40(63)11-5-23-3-8-26(56)9-4-23)82-55(52)80-36-18-28-32(78-50(36)25-7-10-29(58)30(59)15-25)16-27(57)17-33(28)79-53-49(72)47(70)45(68)37(81-53)22-76-42(65)19-39(61)62/h3-18,31,37-38,43,45-49,51-55,60,66,68-72H,19-22H2,1-2H3,(H5-,56,57,58,59,61,62,63,64,67)/p+1
Instrument: Bruker MicrOTOF-Q
Instrument type: LC-ESI-QTOF
Ms type: MS2
Ion mode: POSITIVE
Ionization: ESI
Collision energy: 53.63
Column name: Acquity CSHC18
Retention time: NA
Base peak: 1181.2836
Precursor m/z: 1181.2836
Precursor type: [M]+
m/z	relative intensity
207.0642	13
208.0601	3
261.072	3
286.7498	2
287.057	999
287.904	2
288.0599	152
289.0609	22
290.0639	2
321.1047	8
455.113	2
491.1293	3
492.1222	4
535.1076	47
536.0976	20
537.1143	10
933.2505	3
