Mass spectrum: Proline; LC-ESI-QTOF; MS2; CE: 15 / 50;  [M+H]+
Name: Proline
Class: NA
Formula: C5H9NO2
Exact mass: 115.06333
SMILES: C1CC(NC1)C(=O)O
InChI: InChI=1S/C5H9NO2/c7-5(8)4-2-1-3-6-4/h4,6H,1-3H2,(H,7,8)
Instrument: impact II
Instrument type: LC-ESI-QTOF
Ms type: MS2
Ion mode: POSITIVE
Ionization: ESI
Collision energy: 15 / 50
Column name: Acquity CSHC18
Retention time: 0.600 min
Base peak: 116.07070
Precursor m/z: 116.07070
Precursor type: [M+H]+
m/z	relative intensity
70.066	999
70.0756	157
116.0708	139
