Mass spectrum: 5-AMINOPENTANOATE; LC-ESI-QTOF; MS2; CE: 40;  [M+H]+
Name: 5-AMINOPENTANOATE
Class: NA
Formula: C5H11NO2
Exact mass: 117.07898
SMILES: NCCCCC(O)=O
InChI: InChI=1S/C5H11NO2/c6-4-2-1-3-5(7)8/h1-4,6H2,(H,7,8)
Instrument: Agilent 6530Â Q-TOF LC/MS
Instrument type: LC-ESI-QTOF
Ms type: MS2
Ion mode: POSITIVE
Ionization: ESI
Collision energy: 40
Column name: NA
Retention time: 0.200 min
Base peak: 118.08754
Precursor m/z: 118.08754
Precursor type: [M+H]+
Precursor intensity: 95.5
m/z	relative intensity
42.024	48
42.0277	124
42.0314	167
42.0352	165
42.0389	133
42.0426	99
42.0463	76
42.05	65
42.0537	51
42.0575	35
43.0331	57
43.0369	119
43.0406	126
43.0444	104
43.0482	80
43.0519	58
43.0557	43
58.0502	72
58.0546	483
58.059	925
58.0633	999
58.0677	854
58.072	681
58.0764	524
58.0808	402
58.0852	305
58.0895	242
58.0939	194
58.0983	150
58.1026	103
58.107	69
58.1114	53
58.1157	45
58.1201	37
