Mass spectrum: 7?-hydroxy-3-oxo-4-cholestenoic acid; ESI-TOF; MS2; CE: 6.0000000;  [M+H]+
Name: 7?-hydroxy-3-oxo-4-cholestenoic acid
Class: NA
Formula: C27H42O4
Exact mass: 430.30831
SMILES: [H]OC(=O)C([H])(C([H])([H])[H])C([H])([H])C([H])([H])C([H])([H])C([H])(C([H])([H])[H])C2([H])(C([H])([H])C([H])([H])C3([H])(C4([H])(C([H])(O[H])C([H])([H])C1=C([H])C(=O)C([H])([H])C([H])([H])C1(C([H])([H])[H])C4([H])(C([H])([H])C([H])([H])C23(C([H])([H])[H])))))
InChI: InChI=1S/C27H42O4/c1-16(6-5-7-17(2)25(30)31)20-8-9-21-24-22(11-13-27(20,21)4)26(3)12-10-19(28)14-18(26)15-23(24)29/h14,16-17,20-24,29H,5-13,15H2,1-4H3,(H,30,31)
Instrument: waters xevo g2 TOF
Instrument type: ESI-TOF
Ms type: MS2
Ion mode: POSITIVE
Ionization: ESI
Collision energy: 6.0000000
Column name: Acquity CSHC18
Retention time: 6.927 min
Base peak: 431.31631
Precursor m/z: 431.31631
Precursor type: [M+H]+
m/z	relative intensity
235.1359	2
251.165	6
255.6497	3
269.1907	2
367.2997	4
377.2836	6
395.2944	69
396.2976	20
413.3047	77
414.309	23
415.3113	2
431.3158	999
432.3191	313
433.322	57
434.3251	4
450.2885	2
453.2974	7
454.3008	65
455.3031	6
457.7717	1
469.2621	92
470.2654	26
471.2683	3
473.2526	1
475.2782	1
476.372	2
484.2274	9
485.2342	22
486.2353	2
487.2367	20
488.238	1
489.2318	1
490.2361	2
515.2684	3
528.2649	4
529.2842	1
665.4444	3
665.9428	2
666.4459	1
668.4529	25
668.9547	24
669.4539	11
676.4338	1
676.9334	2
677.4365	1
684.4186	2
684.9172	2
861.6224	98
862.6273	57
863.6327	19
864.6333	4
880.5989	4
881.0986	5
882.0986	1
883.6038	79
884.1003	5
884.6074	48
885.1019	1
885.6087	14
886.6105	3
888.0823	2
888.5848	4
889.0845	3
889.5824	4
890.0843	4
890.5819	3
891.0786	2
891.587	10
892.0874	11
892.5858	7
893.0905	3
893.5994	1
894.5943	1
899.0682	2
899.5694	36
900.0713	8
900.5724	24
901.0698	6
901.5745	10
902.0687	2
902.5786	5
903.0783	1
903.578	2
905.5761	2
907.0562	2
907.5541	4
908.0523	1
908.5614	2
909.0573	1
909.5566	2
910.0584	1
910.5567	1
914.5403	6
915.0404	1
915.5401	8
916.0419	1
916.5419	6
917.544	6
918.5448	5
919.5437	4
920.5412	1
942.0387	1
1095.7501	8
1096.2514	12
1096.7515	8
1097.2577	4
1097.7581	2
1105.2399	1
1106.7409	5
1107.2365	8
1107.7405	6
1108.2482	3
1114.7186	1
1115.2249	3
1115.7222	2
1116.2325	1
1117.7232	1
1118.2341	1
1122.2178	1
1122.7071	2
1123.2032	2
1123.7075	3
1124.2175	3
1124.7116	2
1125.2109	1
1125.7082	1
1126.7185	1
1133.6953	1
