Mass spectrum: CYTIDINE MONOPHOSPHATE; LC-ESI-QFT; MS2; CE: 30eV;  [M+H]+
Name: CYTIDINE MONOPHOSPHATE
Class: NA
Formula: C9H14N3O8P
Exact mass: 323.05185
SMILES: NC1=NC(=O)N(C=C1)[C@@H]1O[C@H](COP(O)(O)=O)[C@@H](O)[C@H]1O
InChI: InChI=1S/C9H14N3O8P/c10-5-1-2-12(9(15)11-5)8-7(14)6(13)4(20-8)3-19-21(16,17)18/h1-2,4,6-8,13-14H,3H2,(H2,10,11,15)(H2,16,17,18)/t4-,6-,7-,8-/m1/s1
Instrument: Q-Exactive Orbitrap, Thermo Scientfic; Ultimate 3000 HPLC, Thermo Scientfic
Instrument type: LC-ESI-QFT
Ms type: MS2
Ion mode: POSITIVE
Ionization: ESI
Collision energy: 30eV
Column name: Acquity CSHC18
Retention time: 0.579 min
Base peak: 324.0591
Precursor m/z: 324.0591
Precursor type: [M+H]+
Precursor intensity: 116
m/z	relative intensity
51.4176	9
52.2964	8
52.3014	9
66.4714	12
69.0343	13
69.0454	21
69.3365	9
71.8845	10
86.0846	9
91.3879	9
93.4508	9
95.0246	107
97.0291	999
110.0362	10
113.0481	67
113.0544	305
113.0583	15
130.228	11
131.1787	12
144.0958	10
145.3011	12
151.6216	11
164.78	10
192.0249	22
194.6029	10
257.8483	10
329.5704	13
332.2449	11
340.4743	11
