Mass spectrum: Salicylic acid 2-O-beta glucoside; LC-ESI-QTOF; MS2; CE: 15;  [M-H]-
Name: Salicylic acid 2-O-beta glucoside
Class: NA
Formula: C13H16O8
Exact mass: 300.0845
SMILES: C1=CC=C(C(=C1)C(=O)O)OC2C(C(C(C(O2)CO)O)O)O
InChI: InChI=1S/C13H16O8/c14-5-8-9(15)10(16)11(17)13(21-8)20-7-4-2-1-3-6(7)12(18)19/h1-4,8-11,13-17H,5H2,(H,18,19)
Instrument: Bruker MicrOTOF-Q
Instrument type: LC-ESI-QTOF
Ms type: MS2
Ion mode: NEGATIVE
Ionization: ESI
Collision energy: 15
Column name: Acquity CSHC18
Retention time: NA
Base peak: 299.0772
Precursor m/z: 299.0772
Precursor type: [M-H]-
m/z	relative intensity
46.5433	24
48.9089	19
49.9082	29
50.5684	29
51.1187	21
51.6955	14
53.2169	26
54.7895	28
55.7875	24
56.3187	26
57.0202	26
58.3523	32
59.2216	21
59.8737	27
61.2921	26
63.4573	68
64.4699	26
66.1645	35
66.8676	22
67.5551	28
69.4169	28
70.9547	49
71.8341	34
73.1004	18
74.3938	34
75.404	33
76.757	23
77.6506	25
78.4515	19
79.4491	24
80.532	39
81.1452	22
81.8758	19
82.7479	24
83.1742	27
83.9386	20
85.065	27
86.0972	25
87.0669	22
87.6661	22
88.6022	33
89.7079	26
90.4369	30
91.2836	23
93.2399	218
95.9624	23
98.3131	24
99.4052	18
100.3789	26
100.9155	22
101.7259	25
102.3503	22
103.4267	25
104.4165	36
105.2642	27
105.8832	22
106.7535	20
107.727	21
108.1619	19
108.7684	23
111.0415	25
112.3402	18
112.9755	81
113.4728	22
114.0468	30
114.6294	14
115.2082	30
115.709	24
117.9793	21
119.0262	23
119.8798	24
120.8917	19
121.6238	27
123.6452	24
125.1499	19
125.9452	20
126.464	18
128.1823	24
129.1395	25
129.9837	24
131.0584	23
131.5409	20
132.464	20
133.7516	29
134.9116	19
135.4113	20
137.5142	999
139.7468	15
140.352	16
140.9709	14
141.8986	18
143.0389	25
144.9439	14
152.5895	15
160.362	32
169.1443	24
180.992	26
189.7948	29
194.5432	27
202.5309	27
207.2304	16
252.8235	18
254.181	27
256.8393	14
366.9763	22
374.2738	28
398.6744	24
402.0339	16
403.5267	22
468.8822	31
471.4347	18
539.6434	14
549.1101	17
552.4779	17
556.9727	19
559.3355	14
591.9246	15
706.3058	27
719.915	18
742.7669	17
755.7743	22
788.9369	22
829.8853	19
887.8029	15
919.3143	22
926.548	19
980.0779	23
