Mass spectrum: Daidzin; LC-ESI-QTOF; MS2; CE: 23.78;  [M+H]+
Name: Daidzin
Class: NA
Formula: C21H20O9
Exact mass: 416.1107
SMILES: C1=CC(=CC=C1C2=COC3=C(C2=O)C=CC(=C3)OC4C(C(C(C(O4)CO)O)O)O)O
InChI: InChI=1S/C21H20O9/c22-8-16-18(25)19(26)20(27)21(30-16)29-12-5-6-13-15(7-12)28-9-14(17(13)24)10-1-3-11(23)4-2-10/h1-7,9,16,18-23,25-27H,8H2
Instrument: Bruker MicrOTOF-Q
Instrument type: LC-ESI-QTOF
Ms type: MS2
Ion mode: POSITIVE
Ionization: ESI
Collision energy: 23.78
Column name: Acquity CSHC18
Retention time: NA
Base peak: 417.1180
Precursor m/z: 417.1180
Precursor type: [M+H]+
m/z	relative intensity
255.0668	19
256.0694	177
257.0715	999
