Mass spectrum: 17-phenyl trinor-13,14-dihydro Prostaglandin A2; ESI-TOF; MS2; CE: 0.6458333;  [M+H]+
Name: 17-phenyl trinor-13,14-dihydro Prostaglandin A2
Class: NA
Formula: C23H30O4
Exact mass: 370.21441
SMILES: O=C1[C@H](C/C=C\CCCC(O)=O)[C@@H](CC[C@@H](O)CCC2=CC=CC=C2)C=C1
InChI: InChI=1S/C23H30O4/c24-20(15-12-18-8-4-3-5-9-18)16-13-19-14-17-22(25)21(19)10-6-1-2-7-11-23(26)27/h1,3-6,8-9,14,17,19-21,24H,2,7,10-13,15-16H2,(H,26,27)/b6-1-/t19-,20-,21+/m0/s1
Instrument: waters xevo g2 TOF
Instrument type: ESI-TOF
Ms type: MS2
Ion mode: POSITIVE
Ionization: ESI
Collision energy: 0.6458333
Column name: Acquity CSHC18
Retention time: 4.213 min
Base peak: 371.22241
Precursor m/z: 371.22241
Precursor type: [M+H]+
m/z	relative intensity
97.0654	33
105.0711	999
109.0658	54
123.0815	49
133.0657	92
135.0813	44
147.0814	100
154.0794	22
169.1019	727
170.1067	106
174.0888	2
175.1112	36
183.0956	96
185.1332	226
187.1126	519
188.1163	71
189.1109	2
191.1032	24
193.1134	65
195.117	84
196.0838	2
205.1051	145
205.5905	2
206.1257	45
207.1228	187
208.1217	49
209.1334	110
221.138	63
226.1354	43
231.139	17
233.1315	102
249.1815	2
251.1432	100
257.1303	24
269.153	22
275.179	47
283.1	28
293.1894	32
299.1802	150
301.1106	2
307.2035	2
311.2007	73
312.2028	2
313.21	2
317.1908	324
318.1938	67
319.1943	2
327.381	2
329.2066	2
335.201	514
336.205	136
353.2112	182
354.2122	18
371.2224	2
372.2099	2
