Mass spectrum: 4-IMIDAZOLEACETATE; LC-ESI-QTOF; MS2; CE: 10;  [M+H]+
Name: 4-IMIDAZOLEACETATE
Class: NA
Formula: C5H6N2O2
Exact mass: 126.04293
SMILES: OC(=O)CC1=CN=CN1
InChI: InChI=1S/C5H6N2O2/c8-5(9)1-4-2-6-3-7-4/h2-3H,1H2,(H,6,7)(H,8,9)
Instrument: Agilent 6530Â Q-TOF LC/MS
Instrument type: LC-ESI-QTOF
Ms type: MS2
Ion mode: POSITIVE
Ionization: ESI
Collision energy: 10
Column name: NA
Retention time: 0.200 min
Base peak: 127.05085
Precursor m/z: 127.05085
Precursor type: [M+H]+
Precursor intensity: 136.5
m/z	relative intensity
43.0154	10
52.0288	11
54.0699	11
54.3779	11
80.3161	11
81.8018	11
83.4041	12
83.574	12
83.6421	13
109.0706	14
109.2382	45
126.9378	234
127.6159	375
128.385	581
128.4734	999
128.7424	10
