Mass spectrum: Agmatine; LC-ESI-ITFT; MS2; CE: 30;  [M+H]+
Name: Agmatine
Class: Organic nitrogen compounds; Organonitrogen compounds; Guanidines
Formula: C5H14N4
Exact mass: 130.12185
SMILES: NCCCCNC(N)=N
InChI: InChI=1S/C5H14N4/c6-3-1-2-4-9-5(7)8/h1-4,6H2,(H4,7,8,9)
Instrument: Thermo Scientific Q-Exactive Focus
Instrument type: LC-ESI-ITFT
Ms type: MS2
Ion mode: POSITIVE
Ionization: ESI
Collision energy: 30
Column name: Acquity CSHC18
Retention time: 0.751 min
Base peak: 131.12912
Precursor m/z: 131.12912
Precursor type: [M+H]+
m/z	relative intensity
52.2882	8
55.0296	88
55.0548	54
60.0561	199
64.7357	9
72.0812	999
72.9375	23
97.0762	16
122.9004	8
128.9193	8
