Mass spectrum: Alpha-Hydroxyisobutyric acid; LC-ESI-ITFT; MS2; CE: 30;  [M-H]-
Name: Alpha-Hydroxyisobutyric acid
Class: Organic acids and derivatives; Hydroxy acids and derivatives; Alpha hydroxy acids and derivatives
Formula: C4H8O3
Exact mass: 104.04734
SMILES: CC(C)(O)C(O)=O
InChI: InChI=1S/C4H8O3/c1-4(2,7)3(5)6/h7H,1-2H3,(H,5,6)
Instrument: Thermo Scientific Q-Exactive Focus
Instrument type: LC-ESI-ITFT
Ms type: MS2
Ion mode: NEGATIVE
Ionization: ESI
Collision energy: 30
Column name: Acquity CSHC18
Retention time: 0.932 min
Base peak: 103.04007
Precursor m/z: 103.04007
Precursor type: [M-H]-
m/z	relative intensity
51.5594	35
54.4729	34
54.8037	36
57.0334	999
71.0968	35
79.2468	35
92.4076	33
96.3973	35
97.2548	35
104.0408	34
