Mass spectrum: DEOXYADENOSINE MONOPHOSPHATE; LC-ESI-QTOF; MS2; CE: 20;  [M-H]-
Name: DEOXYADENOSINE MONOPHOSPHATE
Class: NA
Formula: C10H14N5O6P
Exact mass: 331.06817
SMILES: NC1=NC=NC2=C1N=CN2[C@H]1C[C@H](O)[C@@H](COP(O)(O)=O)O1
InChI: InChI=1S/C10H14N5O6P/c11-9-8-10(13-3-12-9)15(4-14-8)7-1-5(16)6(21-7)2-20-22(17,18)19/h3-7,16H,1-2H2,(H2,11,12,13)(H2,17,18,19)/t5-,6+,7+/m0/s1
Instrument: Agilent 6530Â Q-TOF LC/MS
Instrument type: LC-ESI-QTOF
Ms type: MS2
Ion mode: NEGATIVE
Ionization: ESI
Collision energy: 20
Column name: NA
Retention time: 0.200 min
Base peak: 330.05691
Precursor m/z: 330.05691
Precursor type: [M-H]-
Precursor intensity: 185
m/z	relative intensity
78.9819	113
96.9898	134
134.0669	136
135.0547	198
177.0029	273
195.0117	614
214.0773	683
330.0431	999
