Mass spectrum: BETA-NICOTINAMIDE ADENINE DINUCLEOTIDE; LC-ESI-QTOF; MS2; CE: 20;  [M-H]-
Name: BETA-NICOTINAMIDE ADENINE DINUCLEOTIDE
Class: NA
Formula: C21H27N7O14P2
Exact mass: 663.10912
SMILES: NC(C1=C[N+]([C@@H]2O[C@@H]([C@H]([C@H]2O)O)COP([O-])(OP(O)(OC[C@H]3O[C@@H](N4C=NC5=C4N=CN=C5N)[C@@H]([C@@H]3O)O)=O)=O)=CC=C1)=O
InChI: InChI=1S/C21H27N7O14P2/c22-17-12-19(25-7-24-17)28(8-26-12)21-16(32)14(30)11(41-21)6-39-44(36,37)42-43(34,35)38-5-10-13(29)15(31)20(40-10)27-3-1-2-9(4-27)18(23)33/h1-4,7-8,10-11,13-16,20-21,29-32H,5-6H2,(H5-,22,23,24,25,33,34,35,36,37)/t10-,11-,13-,14-,15-,16-,20-,21-/m1/s1
Instrument: Agilent 6530Â Q-TOF LC/MS
Instrument type: LC-ESI-QTOF
Ms type: MS2
Ion mode: NEGATIVE
Ionization: ESI
Collision energy: 20
Column name: NA
Retention time: 0.200 min
Base peak: 662.10638
Precursor m/z: 662.10638
Precursor type: [M-H]-
Precursor intensity: 146
m/z	relative intensity
272.9458	104
346.0271	115
407.9768	122
540.0455	138
541.0253	999
