Mass spectrum: URSODEOXYCHOLATE; LC-ESI-QFT; MS2; CE: 30eV;  [M-H]-
Name: URSODEOXYCHOLATE
Class: NA
Formula: C24H40O4
Exact mass: 392.29266
SMILES: CC(CCC(=O)O)C1CCC2C1(CCC3C2C(CC4C3(CCC(C4)O)C)O)C
InChI: InChI=1S/C24H40O4/c1-14(4-7-21(27)28)17-5-6-18-22-19(9-11-24(17,18)3)23(2)10-8-16(25)12-15(23)13-20(22)26/h14-20,22,25-26H,4-13H2,1-3H3,(H,27,28)
Instrument: Q-Exactive Orbitrap, Thermo Scientfic; Ultimate 3000 HPLC, Thermo Scientfic
Instrument type: LC-ESI-QFT
Ms type: MS2
Ion mode: NEGATIVE
Ionization: ESI
Collision energy: 30eV
Column name: Acquity CSHC18
Retention time: 11.197 min
Base peak: 391.2854
Precursor m/z: 391.2854
Precursor type: [M-H]-
Precursor intensity: 160
m/z	relative intensity
53.303	3
57.3774	3
59.9142	3
62.0908	3
63.1891	4
66.3061	4
70.091	4
79.6335	4
86.7303	5
94.979	4
96.4827	5
100.9319	4
127.7444	4
135.817	4
171.148	4
186.827	5
327.2364	5
327.269	29
329.2854	41
343.2637	21
345.2797	133
346.2839	23
347.2957	71
347.8723	5
348.3011	6
350.0742	5
355.2634	25
356.2671	6
365.3063	119
366.3098	6
373.2744	5
392.2888	999
