Mass spectrum: Oxiglutatione; LC-ESI-QTOF; MS2; CE: 7-62eV;  [M-H]-
Name: Oxiglutatione
Class: Phenolics
Formula: C20H32N6O12S2
Exact mass: 612.1520
SMILES: C(CC(=O)NC(CSSCC(C(=O)NCC(=O)O)NC(=O)CCC(C(=O)O)N)C(=O)NCC(=O)O)C(C(=O)O)N
InChI: InChI=1S/C20H32N6O12S2/c21-9(19(35)36)1-3-13(27)25-11(17(33)23-5-15(29)30)7-39-40-8-12(18(34)24-6-16(31)32)26-14(28)4-2-10(22)20(37)38/h9-12H,1-8,21-22H2,(H,23,33)(H,24,34)(H,25,27)(H,26,28)(H,29,30)(H,31,32)(H,35,36)(H,37,38)
Instrument: Bruker MicrOTOF-Q
Instrument type: LC-ESI-QTOF
Ms type: MS2
Ion mode: NEGATIVE
Ionization: ESI
Collision energy: 7-62eV
Column name: Acquity CSHC18
Retention time: 2.351 min
Base peak: 611.1397
Precursor m/z: 611.1397
Precursor type: [M-H]-
Precursor intensity: 13885.56
m/z	relative intensity
99.0549	15
101.0662	15
109.075	16
111.0581	17
112.0395	17
123.0603	17
125.054	17
127.062	18
128.0422	19
129.0417	20
131.0417	20
133.1668	21
135.0619	21
137.0743	22
141.0535	23
143.0492	23
144.0371	24
145.0628	24
146.0499	25
147.0481	25
151.0476	25
153.0694	26
154.0715	26
155.0809	27
160.0128	27
161.0092	27
162.0047	28
164.0861	29
166.099	30
167.0691	31
168.0667	31
169.0672	33
170.0335	35
171.0648	37
175.0196	37
176.0153	41
177.0392	43
179.0534	44
180.0521	45
181.0663	55
182.0962	57
184.1131	60
185.0639	62
192.0764	65
197.0617	66
198.0825	66
199.0746	71
203.0542	75
210.1053	80
211.0902	82
213.0437	84
228.099	86
231.0493	90
236.0703	91
242.072	93
254.0889	100
255.0857	102
256.0896	113
260.0889	114
272.1053	127
273.1002	151
286.0534	155
288.0683	217
289.0703	217
304.0713	275
305.0565	279
306.1042	281
307.0871	370
308.0771	479
338.0628	616
339.0547	650
482.1031	983
593.1253	999
611.2024	15
