Mass spectrum: ADENOSINE 3',5'-DIPHOSPHATE; LC-ESI-QFT; MS2; CE: 30eV;  [M+H]+
Name: ADENOSINE 3',5'-DIPHOSPHATE
Class: NA
Formula: C10H15N5O10P2
Exact mass: 427.02941
SMILES: NC1=NC=NC2=C1N=CN2[C@@H]1O[C@H](COP(O)(O)=O)[C@@H](OP(O)(O)=O)[C@H]1O
InChI: InChI=1S/C10H15N5O10P2/c11-8-5-9(13-2-12-8)15(3-14-5)10-6(16)7(25-27(20,21)22)4(24-10)1-23-26(17,18)19/h2-4,6-7,10,16H,1H2,(H2,11,12,13)(H2,17,18,19)(H2,20,21,22)/t4-,6-,7-,10-/m1/s1
Instrument: Q-Exactive Orbitrap, Thermo Scientfic; Ultimate 3000 HPLC, Thermo Scientfic
Instrument type: LC-ESI-QFT
Ms type: MS2
Ion mode: POSITIVE
Ionization: ESI
Collision energy: 30eV
Column name: Acquity CSHC18
Retention time: 0.648 min
Base peak: 428.0367
Precursor m/z: 428.0367
Precursor type: [M+H]+
Precursor intensity: 114
m/z	relative intensity
62.3696	2
69.2531	2
78.3989	2
79.1162	2
80.816	2
83.8887	2
97.0291	30
100.9937	3
122.9587	3
125.7358	2
134.5824	2
136.0622	999
136.9974	2
137.0597	10
137.0655	29
137.211	3
137.8625	2
138.5759	2
138.6487	2
140.0607	2
172.6594	2
177.2589	3
178.072	3
223.9362	2
228.3818	3
232.0835	5
250.0936	5
272.3613	2
330.0614	4
348.0715	66
380.026	3
428.0396	3
