Mass spectrum: HISTIDINE; LC-ESI-QTOF; MS2; CE: 40;  [M+H]+
Name: HISTIDINE
Class: NA
Formula: C6H9N3O2
Exact mass: 155.06948
SMILES: N[C@@H](CC1=CNC=N1)C(O)=O
InChI: InChI=1S/C6H9N3O2/c7-5(6(10)11)1-4-2-8-3-9-4/h2-3,5H,1,7H2,(H,8,9)(H,10,11)/t5-/m0/s1
Instrument: Agilent 6530Â Q-TOF LC/MS
Instrument type: LC-ESI-QTOF
Ms type: MS2
Ion mode: POSITIVE
Ionization: ESI
Collision energy: 40
Column name: NA
Retention time: 0.200 min
Base peak: 156.07588
Precursor m/z: 156.07588
Precursor type: [M+H]+
Precursor intensity: 17.5
m/z	relative intensity
41.0448	36
42.0403	40
43.0458	62
54.0556	78
55.0567	79
56.0756	88
56.2108	90
66.0519	111
67.0524	137
68.0629	190
69.0475	254
81.0684	335
81.4197	344
82.0778	483
83.0881	514
93.0695	586
95.065	637
110.0853	999
