Mass spectrum: L-Asparagine; LC-ESI-ITFT; MS2; CE: 60;  [M+H]+
Name: L-Asparagine
Class: Organic acids and derivatives; Carboxylic acids and derivatives; Amino acids, peptides, and analogues
Formula: C4H8N2O3
Exact mass: 132.05349
SMILES: N[C@@H](CC(N)=O)C(O)=O
InChI: InChI=1S/C4H8N2O3/c5-2(4(8)9)1-3(6)7/h2H,1,5H2,(H2,6,7)(H,8,9)/t2-/m0/s1
Instrument: Thermo Scientific Q-Exactive Focus
Instrument type: LC-ESI-ITFT
Ms type: MS2
Ion mode: POSITIVE
Ionization: ESI
Collision energy: 60
Column name: Acquity CSHC18
Retention time: 2.015 min
Base peak: 133.06078
Precursor m/z: 133.06078
Precursor type: [M+H]+
m/z	relative intensity
65.2568	586
65.7098	578
72.2185	578
72.927	563
83.1751	604
92.5243	999
99.8885	526
104.3149	555
134.7755	649
142.045	594
