Mass spectrum: 13,14-dihydro-15-keto Prostaglandin J2; ESI-TOF; MS2; CE: 0.6458333;  [M+H]+
Name: 13,14-dihydro-15-keto Prostaglandin J2
Class: NA
Formula: C20H30O4
Exact mass: 334.21441
SMILES: O=C1C=C[C@H](C/C=C\CCCC(O)=O)[C@H]1CCC(CCCCC)=O
InChI: InChI=1S/C20H30O4/c1-2-3-6-10-17(21)13-14-18-16(12-15-19(18)22)9-7-4-5-8-11-20(23)24/h4,7,12,15-16,18H,2-3,5-6,8-11,13-14H2,1H3,(H,23,24)/b7-4-/t16-,18+/m0/s1
Instrument: waters xevo g2 TOF
Instrument type: ESI-TOF
Ms type: MS2
Ion mode: POSITIVE
Ionization: ESI
Collision energy: 0.6458333
Column name: Acquity CSHC18
Retention time: 3.862 min
Base peak: 335.22241
Precursor m/z: 335.22241
Precursor type: [M+H]+
m/z	relative intensity
67.0537	60
71.0859	316
79.0539	121
85.0641	34
93.0712	113
97.0659	61
99.0806	607
100.0836	34
107.0499	248
109.1024	179
113.027	29
115.055	37
117.0709	384
121.0661	99
124.0524	23
127.1128	458
128.0635	54
129.0704	518
130.0726	39
131.0862	495
133.0316	133
134.0684	28
135.0814	232
141.0994	118
143.0863	401
144.0906	32
145.0832	150
147.0816	264
151.1116	17
153.0612	90
155.0869	413
157.102	755
158.1021	99
159.0806	285
161.097	222
163.1112	60
165.0686	49
167.0707	215
169.1029	203
170.1087	17
171.1207	44
173.0964	999
174.0993	156
175.1125	372
176.1165	29
178.0828	77
181.05	39
182.0038	169
183.1179	253
185.0542	808
186.0558	91
187.0769	119
189.129	205
190.1361	53
191.0607	291
192.1094	71
193.1019	64
197.133	127
199.1079	33
201.1279	429
202.132	50
203.0599	728
204.1098	198
207.1191	84
211.1126	149
214.1522	34
215.1429	471
216.1448	39
217.1569	24
219.1372	138
224.1233	19
225.1286	65
230.0831	68
233.1534	259
237.1661	17
239.1704	45
240.2706	21
247.0641	208
251.0695	27
253.1953	71
257.0262	18
259.0648	379
262.0289	148
263.108	149
265.0743	33
271.2055	72
275.0351	42
281.1896	429
282.1925	54
289.199	26
290.0571	42
299.2008	721
300.2054	128
317.211	805
318.2149	189
335.2224	66
