Mass spectrum: 5-Thymidylic acid; LC-ESI-ITFT; MS2; CE: 60;  [M-H]-
Name: 5-Thymidylic acid
Class: Nucleosides, nucleotides, and analogues; Pyrimidine nucleotides; Pyrimidine deoxyribonucleotides
Formula: C10H15N2O8P
Exact mass: 322.05660
SMILES: CC1=CN([C@H]2C[C@H](O)[C@@H](COP(O)(O)=O)O2)C(=O)NC1=O
InChI: InChI=1S/C10H15N2O8P/c1-5-3-12(10(15)11-9(5)14)8-2-6(13)7(20-8)4-19-21(16,17)18/h3,6-8,13H,2,4H2,1H3,(H,11,14,15)(H2,16,17,18)/t6-,7+,8+/m0/s1
Instrument: Thermo Scientific Q-Exactive Focus
Instrument type: LC-ESI-ITFT
Ms type: MS2
Ion mode: NEGATIVE
Ionization: ESI
Collision energy: 60
Column name: Acquity CSHC18
Retention time: 2.030 min
Base peak: 321.04932
Precursor m/z: 321.04932
Precursor type: [M-H]-
m/z	relative intensity
62.963	1
78.9392	1
78.956	1
78.9579	999
78.9761	1
96.9685	37
118.9652	3
125.0346	12
