Mass spectrum: 15-deoxy--delta12,14-Prostaglandin J2; ESI-TOF; MS2; CE: 6.0000000;  [M+H]+
Name: 15-deoxy--delta12,14-Prostaglandin J2
Class: NA
Formula: C20H28O3
Exact mass: 316.20384
SMILES: O=C1/C([C@@H](C/C=C\CCCC(O)=O)C=C1)=C/C=C/CCCCC
InChI: InChI=1S/C20H28O3/c1-2-3-4-5-6-10-13-18-17(15-16-19(18)21)12-9-7-8-11-14-20(22)23/h6-7,9-10,13,15-17H,2-5,8,11-12,14H2,1H3,(H,22,23)/b9-7-,10-6+,18-13+/t17-/m0/s1
Instrument: waters xevo g2 TOF
Instrument type: ESI-TOF
Ms type: MS2
Ion mode: POSITIVE
Ionization: ESI
Collision energy: 6.0000000
Column name: Acquity CSHC18
Retention time: 4.490 min
Base peak: 317.21184
Precursor m/z: 317.21184
Precursor type: [M+H]+
m/z	relative intensity
109.1026	1
133.0654	5
145.0661	1
149.0234	3
171.1178	1
173.0961	1
178.083	28
183.117	3
189.1284	22
194.0965	4
197.1154	2
198.5961	6
203.1065	5
205.1211	1
215.1446	24
225.1255	1
229.1093	3
231.2086	3
239.1792	7
243.1355	3
253.1964	11
254.1969	1
257.1887	3
271.2062	24
272.2086	3
281.1897	44
282.1899	8
299.2013	53
300.2051	12
301.2082	7
317.2113	999
318.2145	239
