Mass spectrum: Indole-3-carboxaldehyde; LC-ESI-QTOF; MS2; CE: 50eV;  [M-H]-
Name: Indole-3-carboxaldehyde
Class: indole
Formula: C9H7NO
Exact mass: 145.0528
SMILES: C1=CC=C2C(=C1)C(=CN2)C=O
InChI: InChI=1S/C9H7NO/c11-6-7-5-10-9-4-2-1-3-8(7)9/h1-6,10H
Instrument: TIMS-TOF Pro, Bruker Daltonik; Elute UHPLC System, Bruker Daltonik
Instrument type: LC-ESI-QTOF
Ms type: MS2
Ion mode: NEGATIVE
Ionization: ESI
Collision energy: 50eV
Column name: Acquity CSHC18
Retention time: 5.767 min
Base peak: 144.0432
Precursor m/z: 144.0432
Precursor type: [M-H]-
Precursor intensity: 102134.3
m/z	relative intensity
41.003	12
50.0022	10
64.0178	8
65.9972	25
67.0001	6
73.0994	6
83.5324	5
88.0166	8
90.0324	6
99.0208	6
114.0343	45
115.0411	43
116.0482	26
117.0422	6
126.0346	19
127.0367	6
142.0273	11
143.0373	6
144.0422	999
144.2533	6
144.3802	6
