Mass spectrum: Prostaglandin F2-alpha-1-glyceryl ester; ESI-TOF; MS2; CE: 0.6458333;  [M+H]+
Name: Prostaglandin F2-alpha-1-glyceryl ester
Class: NA
Formula: C23H40O7
Exact mass: 428.27740
SMILES: CCCCCC(/C=C/C1C(CC(C1C/C=C/CCCC(=O)OCC(CO)O)O)O)O
InChI: InChI=1S/C23H40O7/c1-2-3-6-9-17(25)12-13-20-19(21(27)14-22(20)28)10-7-4-5-8-11-23(29)30-16-18(26)15-24/h4,7,12-13,17-22,24-28H,2-3,5-6,8-11,14-16H2,1H3/b7-4+,13-12+
Instrument: waters xevo g2 TOF
Instrument type: ESI-TOF
Ms type: MS2
Ion mode: POSITIVE
Ionization: ESI
Collision energy: 0.6458333
Column name: Acquity CSHC18
Retention time: 3.499 min
Base peak: 429.28540
Precursor m/z: 429.28540
Precursor type: [M+H]+
m/z	relative intensity
79.0554	93
81.0706	133
82.9818	33
91.0555	84
93.0717	102
95.0506	62
99.0441	11
107.0869	73
109.0672	25
117.0717	143
119.0863	79
121.0656	55
124.0361	12
129.0702	131
131.044	94
135.1194	28
143.0866	123
144.0886	13
145.1024	137
147.1158	29
149.0794	19
157.1013	89
158.107	16
159.1186	71
161.0961	44
163.1489	22
165.0911	7
167.079	34
170.0854	33
170.5852	6
171.1169	128
172.1191	15
173.1322	57
175.1167	17
177.1628	7
181.1011	65
183.0987	64
185.0971	82
186.136	9
187.113	56
189.1637	23
197.1328	25
199.1477	77
200.1537	8
201.1253	22
203.1395	29
205.0181	9
209.091	46
210.1373	6
211.1492	8
213.1282	45
214.1313	7
216.1099	37
217.1573	35
219.1835	8
223.0982	14
225.1151	78
227.1765	16
229.1965	68
239.1802	77
240.1879	13
241.1964	144
242.1982	16
245.1883	15
247.205	31
255.2089	84
256.2142	16
257.1913	135
258.1917	22
259.2032	23
265.1965	82
273.2235	18
275.1999	90
283.1514	164
284.2114	45
301.2171	142
302.2224	18
307.1112	6
313.1446	31
314.1341	18
315.1766	20
319.1764	18
329.1182	13
331.1576	38
332.1629	119
337.1211	7
339.1567	48
346.1316	101
347.129	106
348.1338	45
349.1916	39
350.234	10
355.1252	31
357.1729	174
358.1772	36
359.1236	14
372.1475	13
373.1438	17
375.2047	240
376.2208	89
377.2622	16
379.1396	5
386.1568	10
393.1951	999
394.2317	119
395.2012	36
405.2308	25
407.1773	14
408.2353	88
409.234	12
410.1675	21
412.675	18
417.2424	22
420.1578	20
421.2488	10
423.1667	39
430.2486	143
430.7455	59
431.2489	18
