Mass spectrum: 4-Methoxybenzaldehyde; LC-ESI-QTOF; MS2; CE: 15.00;  [M+H]+
Name: 4-Methoxybenzaldehyde
Class: NA
Formula: C8H8O2
Exact mass: 136.0524
SMILES: COC1=CC=C(C=C1)C=O
InChI: InChI=1S/C8H8O2/c1-10-8-4-2-7(6-9)3-5-8/h2-6H,1H3
Instrument: Bruker MicrOTOF-Q
Instrument type: LC-ESI-QTOF
Ms type: MS2
Ion mode: POSITIVE
Ionization: ESI
Collision energy: 15.00
Column name: Acquity CSHC18
Retention time: NA
Base peak: 137.0597
Precursor m/z: 137.0597
Precursor type: [M+H]+
m/z	relative intensity
94.0254	21
108.0546	21
109.0638	191
110.0681	60
135.0434	140
137.0573	999
137.4854	12
138.0607	62
