Mass spectrum: daidzein; LC-ESI-ITFT; MS2; CE: 0.3;  [M+H]+
Name: daidzein
Class: isoflavones
Formula: C15H10O4
Exact mass: 254.0579
SMILES: C1=CC(=CC=C1C2=COC3=C(C2=O)C=CC(=C3)O)O
InChI: InChI=1S/C15H10O4/c16-10-3-1-9(2-4-10)13-8-19-14-7-11(17)5-6-12(14)15(13)18/h1-8,16-17H
Instrument: LTQ-Orbitrap XL hybrid mass spectrometer (Thermo Scientific)
Instrument type: LC-ESI-ITFT
Ms type: MS2
Ion mode: POSITIVE
Ionization: ESI
Collision energy: 0.3
Column name: Acquity CSHC18
Retention time: 7.069 min
Base peak: 255.0642
Precursor m/z: 255.0642
Precursor type: [M+H]+
Precursor intensity: 24155720
m/z	relative intensity
63.7243	7
64.153	8
65.5777	9
66.7265	8
68.3985	10
76.7634	7
80.7711	7
81.0331	12
85.8753	8
86.2214	8
89.9708	8
93.7837	9
94.2596	9
98.4648	9
100.8214	8
105.1515	8
107.9819	8
111.0399	9
121.1188	9
124.0819	10
128.4858	9
128.7165	12
130.0385	13
130.8029	10
133.0278	22
137.0226	363
137.7048	10
138.458	11
139.2749	10
140.9594	11
145.0275	59
145.1708	9
146.8439	12
147.262	10
155.0908	11
155.522	10
156.3968	11
157.0643	29
157.4423	12
157.8796	10
159.0944	14
161.2221	9
161.7079	11
162.1991	11
162.2522	11
164.0706	12
167.0111	25
168.1258	10
169.0102	10
171.0819	14
171.5843	12
171.8494	13
171.9407	10
179.6581	11
180.9278	13
181.0638	14
185.0595	30
186.9539	10
187.2097	11
188.7732	10
189.3247	13
192.8566	11
199.0745	563
200.7943	11
202.0729	13
203.3239	11
203.5134	11
204.3861	12
209.0572	19
211.0741	26
214.1502	13
220.4549	12
222.4164	14
224.4862	11
225.2545	13
227.0697	272
227.3571	12
233.2421	13
233.4018	13
234.9822	12
235.6159	12
237.0536	108
237.5076	11
237.5907	13
239.1151	17
247.8533	9
247.8681	10
249.8967	11
255.0643	999
