Mass spectrum: 2-Aminoanthracene; LC-ESI-ITFT; MS2; CE: 60;  [M+H]+
Name: 2-Aminoanthracene
Class: NA
Formula: C14H11N
Exact mass: 193.08915
SMILES: C1=CC=C2C=C3C=C(C=CC3=CC2=C1)N
InChI: InChI=1S/C14H11N/c15-14-6-5-12-7-10-3-1-2-4-11(10)8-13(12)9-14/h1-9H,15H2
Instrument: Thermo Scientific Q-Exactive Focus
Instrument type: LC-ESI-ITFT
Ms type: MS2
Ion mode: POSITIVE
Ionization: ESI
Collision energy: 60
Column name: Acquity CSHC18
Retention time: 1.731 min
Base peak: 194.09644
Precursor m/z: 194.09644
Precursor type: [M+H]+
m/z	relative intensity
95.0495	110
102.0468	80
126.0466	112
150.0464	999
152.0622	66
165.0699	311
169.0648	341
176.0621	715
179.0605	69
193.0648	112
