Mass spectrum: Guanine; LC-ESI-ITFT; MS2; CE: 100;  [M-H]-
Name: Guanine
Class: Organoheterocyclic compounds; Imidazopyrimidines; Purines and purine derivatives
Formula: C5H5N5O
Exact mass: 151.04941
SMILES: NC1=NC(=O)C2=C(N1)N=CN2
InChI: InChI=1S/C5H5N5O/c6-5-9-3-2(4(11)10-5)7-1-8-3/h1H,(H4,6,7,8,9,10,11)
Instrument: Thermo Scientific Q-Exactive Focus
Instrument type: LC-ESI-ITFT
Ms type: MS2
Ion mode: NEGATIVE
Ionization: ESI
Collision energy: 100
Column name: Acquity CSHC18
Retention time: 2.586 min
Base peak: 150.04213
Precursor m/z: 150.04213
Precursor type: [M-H]-
m/z	relative intensity
62.4345	582
66.0085	999
81.2377	598
82.769	607
99.1306	581
107.6783	566
109.964	596
133.7936	566
139.9417	739
147.806	573
