Mass spectrum: Maleic acid; LC-ESI-QTOF; MS2; CE: 10;  [M-H]-
Name: Maleic acid
Class: NA
Formula: C4H4O4
Exact mass: 116.0110
SMILES: C(=CC(=O)O)C(=O)O
InChI: InChI=1S/C4H4O4/c5-3(6)1-2-4(7)8/h1-2H,(H,5,6)(H,7,8)
Instrument: impact II
Instrument type: LC-ESI-QTOF
Ms type: MS2
Ion mode: NEGATIVE
Ionization: ESI
Collision energy: 10
Column name: Acquity CSHC18
Retention time: 1.779 min
Base peak: 115.0036
Precursor m/z: 115.0036
Precursor type: [M-H]-
m/z	relative intensity
71.015	999
114.9365	143
115.0037	753
