Mass spectrum: Oxytetracycline; LC-ESI-ITFT; MS2; CE: 100;  [M-H]-
Name: Oxytetracycline
Class: Phenylpropanoids and polyketides; Tetracyclines
Formula: C22H24N2O9
Exact mass: 460.14818
SMILES: [H][C@@]12[C@@H](O)[C@@]3([H])C(=C(O)C4=C(O)C=CC=C4[C@@]3(C)O)C(=O)[C@]1(O)C(=O)C(C(N)=O)=C(O)[C@H]2N(C)C
InChI: InChI=1S/C22H24N2O9/c1-21(32)7-5-4-6-8(25)9(7)15(26)10-12(21)17(28)13-14(24(2)3)16(27)11(20(23)31)19(30)22(13,33)18(10)29/h4-6,12-14,17,25-28,32-33H,1-3H3,(H2,23,31)/t12-,13-,14+,17+,21-,22+/m1/s1
Instrument: Thermo Scientific Q-Exactive Focus
Instrument type: LC-ESI-ITFT
Ms type: MS2
Ion mode: NEGATIVE
Ionization: ESI
Collision energy: 100
Column name: Acquity CSHC18
Retention time: 2.582 min
Base peak: 459.14090
Precursor m/z: 459.14090
Precursor type: [M-H]-
m/z	relative intensity
65.9973	585
68.997	676
93.0334	891
117.0334	593
135.044	999
143.0492	522
158.0363	526
171.0443	911
173.06	592
187.0393	473
