Mass spectrum: Allantoin; LC-ESI-ITFT; MS2; CE: 60;  [M-H]-
Name: Allantoin
Class: Organoheterocyclic compounds; Azoles; Imidazoles
Formula: C4H6N4O3
Exact mass: 158.04399
SMILES: NC(=O)NC1NC(=O)NC1=O
InChI: InChI=1S/C4H6N4O3/c5-3(10)6-1-2(9)8-4(11)7-1/h1H,(H3,5,6,10)(H2,7,8,9,11)
Instrument: Thermo Scientific Q-Exactive Focus
Instrument type: LC-ESI-ITFT
Ms type: MS2
Ion mode: NEGATIVE
Ionization: ESI
Collision energy: 60
Column name: Acquity CSHC18
Retention time: 1.762 min
Base peak: 157.03671
Precursor m/z: 157.03671
Precursor type: [M-H]-
m/z	relative intensity
63.6425	860
74.3143	802
76.5885	830
89.2762	866
94.1685	999
95.288	817
103.1248	840
109.5672	878
120.7814	835
171.1631	823
