Mass spectrum: 3-Methyl-1,2,3,4-tetrahydroxybutane-1,3-cyclic bisphosphate; LC-ESI-QTOF; MS2; CE: -10, -35, -60V;  [M-H]-
Name: 3-Methyl-1,2,3,4-tetrahydroxybutane-1,3-cyclic bisphosphate
Class: NA
Formula: C5H12O9P2
Exact mass: 277.9957
SMILES: CC1(C(COP(=O)(OP(=O)(O1)O)O)O)CO
InChI: InChI=1S/C5H12O9P2/c1-5(3-6)4(7)2-12-15(8,9)14-16(10,11)13-5/h4,6-7H,2-3H2,1H3,(H,8,9)(H,10,11)
Instrument: TripleToF 5600; Sciex
Instrument type: LC-ESI-QTOF
Ms type: MS2
Ion mode: NEGATIVE
Ionization: ESI
Collision energy: -10, -35, -60V
Column name: Acquity CSHC18
Retention time: 10.499 min
Base peak: 276.9923
Precursor m/z: 276.9923
Precursor type: [M-H]-
Precursor intensity: 333756.8
m/z	relative intensity
78.9593	547
80.9601	10
96.9702	197
149.006	9
158.9263	52
179.013	119
180.0174	15
197.0217	17
258.976	26
276.1025	22
276.99	999
