Mass spectrum: CYCLIC GMP; LC-ESI-QFT; MS2; CE: 30eV;  [M+H]+
Name: CYCLIC GMP
Class: NA
Formula: C10H12N5O7P
Exact mass: 345.04743
SMILES: NC1=NC2=C(N=CN2[C@@H]2O[C@@H]3COP(O)(=O)O[C@H]3[C@H]2O)C(=O)N1
InChI: InChI=1S/C10H12N5O7P/c11-10-13-7-4(8(17)14-10)12-2-15(7)9-5(16)6-3(21-9)1-20-23(18,19)22-6/h2-3,5-6,9,16H,1H2,(H,18,19)(H3,11,13,14,17)/t3-,5-,6-,9-/m1/s1
Instrument: Q-Exactive Orbitrap, Thermo Scientfic; Ultimate 3000 HPLC, Thermo Scientfic
Instrument type: LC-ESI-QFT
Ms type: MS2
Ion mode: POSITIVE
Ionization: ESI
Collision energy: 30eV
Column name: Acquity CSHC18
Retention time: 1.163 min
Base peak: 346.0547
Precursor m/z: 346.0547
Precursor type: [M+H]+
Precursor intensity: 127
m/z	relative intensity
50.25	11
61.5849	14
63.0633	12
69.0344	36
69.7983	12
70.993	12
73.2966	12
76.4746	14
79.1278	12
85.3517	14
89.2524	12
93.9281	13
94.2744	12
97.029	65
98.9849	89
103.8904	15
110.0356	18
114.4611	15
117.7136	14
121.0644	14
128.0462	19
135.0306	63
153.0411	162
153.0541	327
153.0605	999
155.866	16
224.2278	17
231.9295	16
232.7424	15
318.9069	14
331.6328	14
343.2024	17
346.0557	641
347.0595	20
