Mass spectrum: Acetylglycine; LC-ESI-ITFT; MS2; CE: 30;  [M+H]+
Name: Acetylglycine
Class: Organic acids and derivatives; Carboxylic acids and derivatives; Amino acids, peptides, and analogues
Formula: C4H7NO3
Exact mass: 117.04259
SMILES: CC(=O)NCC(O)=O
InChI: InChI=1S/C4H7NO3/c1-3(6)5-2-4(7)8/h2H2,1H3,(H,5,6)(H,7,8)
Instrument: Thermo Scientific Q-Exactive Focus
Instrument type: LC-ESI-ITFT
Ms type: MS2
Ion mode: POSITIVE
Ionization: ESI
Collision energy: 30
Column name: Acquity CSHC18
Retention time: 0.913 min
Base peak: 118.04987
Precursor m/z: 118.04987
Precursor type: [M+H]+
m/z	relative intensity
64.1714	890
69.6161	830
72.3655	879
74.8554	897
82.5162	872
108.6828	855
112.2185	857
116.6326	935
134.3615	999
136.9309	821
