Mass spectrum: 8-Hydroxyquercetin; LC-ESI-QTOF; MS2; CE: 50eV;  [M-H]-
Name: 8-Hydroxyquercetin
Class: Flavonol
Formula: C15H10O8
Exact mass: 318.0376
SMILES: C1=CC(=C(C=C1C2=C(C(=O)C3=C(O2)C(=C(C=C3O)O)O)O)O)O
InChI: InChI=1S/C15H10O8/c16-6-2-1-5(3-7(6)17)14-13(22)12(21)10-8(18)4-9(19)11(20)15(10)23-14/h1-4,16-20,22H
Instrument: TIMS-TOF Pro, Bruker Daltonik; Elute UHPLC System, Bruker Daltonik
Instrument type: LC-ESI-QTOF
Ms type: MS2
Ion mode: NEGATIVE
Ionization: ESI
Collision energy: 50eV
Column name: Acquity CSHC18
Retention time: 5.890 min
Base peak: 317.0257
Precursor m/z: 317.0257
Precursor type: [M-H]-
Precursor intensity: 185997.4
m/z	relative intensity
25.4079	3
41.0025	21
44.6197	2
47.7449	3
52.0258	6
53.0395	4
55.0189	4
61.2945	3
63.3206	5
65.0016	43
65.432	3
67.0179	22
68.9969	21
71.0113	6
79.9893	9
80.9965	14
82.0042	26
83.0125	24
84.0082	3
93.0337	45
94.0386	5
95.012	38
96.0214	8
99.0061	7
99.589	6
100.9895	3
103.0551	4
107.0107	16
108.0195	19
108.9918	13
109.9998	67
111.0076	243
111.1838	4
111.5815	3
112.0116	8
112.8024	4
115.0558	9
117.7076	6
119.0491	6
121.0288	59
122.03	9
123.0257	30
124.0149	15
124.986	9
129.032	9
131.0566	4
132.0204	7
134.0299	5
136.0932	5
136.9868	45
137.9943	9
139.0019	159
139.2381	2
139.6962	2
140.0076	21
141.015	7
143.0463	11
145.0275	8
146.0318	3
147.0434	8
148.0144	6
149.0213	26
150.0238	5
151.0375	11
151.6485	4
152.8314	2
153.3093	4
156.0133	4
158.0425	3
161.0217	5
164.0106	4
165.9894	23
166.9965	190
168.0045	6
170.0319	5
171.0511	7
172.0506	8
173.022	3
175.0375	6
177.05	5
178.996	7
180.588	6
187.035	6
189.0198	3
193.9814	14
194.9907	57
195.9916	14
199.0362	17
200.0408	5
206.9887	3
209.9985	5
214.0253	3
217.0461	8
227.0308	14
228.0321	7
229.0451	7
231.0276	11
243.0232	11
245.0405	44
246.0461	8
248.0237	3
255.0227	8
256.0258	5
257.0385	3
258.0177	3
271.0208	48
272.0263	14
273.0362	25
274.0376	7
281.006	4
289.0288	16
299.0129	83
299.2393	2
300.0198	9
316.7983	3
316.9639	5
317.0257	999
317.2868	2
317.3767	4
