Mass spectrum: isorhamnetin 3-O-glucoside; LC-ESI-ITFT; MS2; CE: 0.3;  [M+H]+
Name: isorhamnetin 3-O-glucoside
Class: flavonols
Formula: C22H22O12
Exact mass: 478.1111
SMILES: COC1=C(C=CC(=C1)C2=C(C(=O)C3=C(C=C(C=C3O2)O)O)OC4C(C(C(C(O4)CO)O)O)O)O
InChI: InChI=1S/C22H22O12/c1-31-12-4-8(2-3-10(12)25)20-21(17(28)15-11(26)5-9(24)6-13(15)32-20)34-22-19(30)18(29)16(27)14(7-23)33-22/h2-6,14,16,18-19,22-27,29-30H,7H2,1H3
Instrument: LTQ-Orbitrap XL hybrid mass spectrometer (Thermo Scientific)
Instrument type: LC-ESI-ITFT
Ms type: MS2
Ion mode: POSITIVE
Ionization: ESI
Collision energy: 0.3
Column name: Acquity CSHC18
Retention time: 7.617 min
Base peak: 479.1198
Precursor m/z: 479.1198
Precursor type: [M+H]+
Precursor intensity: 32474920
m/z	relative intensity
122.5809	1
122.7349	1
124.8807	1
127.8356	1
139.5214	1
141.0434	1
159.5077	1
161.2028	3
161.2086	1
167.6719	2
170.9427	1
194.5218	1
194.5296	1
195.4816	1
196.1719	1
196.1764	4
196.2565	1
239.4708	1
264.0446	1
274.8021	1
286.582	4
314.626	3
315.4372	2
315.7626	1
316.0842	1
316.4954	1
316.5004	1
317.0439	8
317.0478	5
317.0671	999
317.0822	5
317.0863	8
318.0703	42
318.6943	1
318.7117	3
319.5384	3
321.5843	1
351.5992	1
359.0786	2
359.4687	1
383.077	1
413.0886	1
442.4244	1
457.1777	1
457.1906	1
461.1098	4
478.5634	2
