Mass spectrum: 8-Methylsulfinyloctyl glucosinolate; LC-ESI-QTOF; MS2; CE: 29.41;  [M-H]-
Name: 8-Methylsulfinyloctyl glucosinolate
Class: NA
Formula: C16H31NO10S3
Exact mass: 493.1110
SMILES: CS(=O)CCCCCCCCC(=NOS(=O)(=O)O)SC1C(C(C(C(O1)CO)O)O)O
InChI: InChI=1S/C16H31NO10S3/c1-29(22)9-7-5-3-2-4-6-8-12(17-27-30(23,24)25)28-16-15(21)14(20)13(19)11(10-18)26-16/h11,13-16,18-21H,2-10H2,1H3,(H,23,24,25)
Instrument: Bruker MicrOTOF-Q
Instrument type: LC-ESI-QTOF
Ms type: MS2
Ion mode: NEGATIVE
Ionization: ESI
Collision energy: 29.41
Column name: Acquity CSHC18
Retention time: NA
Base peak: 492.1037
Precursor m/z: 492.1037
Precursor type: [M-H]-
m/z	relative intensity
45.3078	1
46.3394	2
46.924	1
48.3751	1
49.1656	4
49.9646	1
51.1839	1
52.4058	2
53.7723	2
55.5751	1
56.9898	1
58.6413	1
59.5123	1
61.5436	1
62.8103	1
64.7051	1
65.4243	1
66.5377	2
68.1865	1
68.9929	2
71.2079	1
72.0931	1
72.9955	2
74.586	2
75.0939	1
76.6182	1
77.339	2
77.7982	1
78.7365	2
79.9562	21
80.9338	2
81.8756	1
82.4642	2
83.9629	3
87.326	1
89.0778	1
90.124	1
90.7851	1
91.771	1
92.1857	1
94.7369	1
95.6883	454
96.9849	562
98.0746	32
99.204	34
100.9937	6
104.4502	1
105.8277	2
111.9302	60
113.0227	11
113.9268	5
118.5467	1
119.003	8
119.9776	22
121.8885	2
122.9702	2
127.7876	41
128.9822	22
129.8899	3
131.1566	4
135.9711	101
137.7045	1
138.1665	1
138.972	132
141.9655	1
143.9222	6
145.0508	32
147.0318	1
153.0753	1
153.9341	1
155.948	1
157.1904	1
158.066	2
160.981	3
163.0615	24
164.0319	3
164.602	1
165.059	1
166.2355	1
166.9607	6
168.9561	55
169.9628	4
171.0851	23
172.0976	1
175.0667	1
177.0083	6
178.0183	33
179.0391	10
180.0355	3
183.9658	2
186.0971	178
187.0964	13
188.0962	7
190.0544	11
190.8196	2
192.0367	19
193.0037	3
194.2775	1
195.1467	60
195.9761	35
197.0308	8
198.9926	28
202.0904	73
203.0981	4
205.0556	82
206.0502	258
207.0637	68
209.0921	2
211.2124	2
214.3925	1
217.0754	10
218.0851	49
220.0615	22
222.9925	3
227.0221	63
228.0686	6
229.0231	3
232.0657	63
233.2707	19
234.8565	999
236.0788	305
236.8252	17
237.8999	58
238.5965	2
239.0277	39
240.0141	9
241.1517	58
242.9962	5
248.0564	5
250.0927	242
251.0939	31
252.0925	13
254.0277	18
256.9842	6
259.0686	357
260.0163	89
261.0125	58
264.0353	3
265.5657	1
266.0529	357
267.0548	52
267.8638	22
269.0458	4
273.7349	1
275.1801	451
275.9935	72
276.988	98
277.986	6
281.0385	36
282.0514	52
283.0458	6
284.023	36
285.0303	8
286.0212	6
290.9829	45
291.9817	4
296.0212	9
299.0461	156
300.051	24
301.041	21
306.0901	3
314.0697	7
324.0806	1
331.0127	8
344.0106	37
348.1462	25
358.0284	33
359.0283	6
372.0438	27
374.048	4
386.0583	144
387.058	18
388.0499	21
399.1152	3
400.0756	62
403.0746	2
426.5236	1
428.2755	405
429.1083	152
430.1033	99
432.1106	4
460.0756	25
462.0726	4
477.0807	504
478.0862	100
479.0792	85
480.0764	21
492.1056	46
493.101	7
495.1088	2
