Mass spectrum: 1,2-dimyristoyl-sn-glycero-3-phosphocholine; ESI-TOF; MS2; CE: 0.6458333;  [M+H]+
Name: 1,2-dimyristoyl-sn-glycero-3-phosphocholine
Class: NA
Formula: C36H72NO8P
Exact mass: 677.49955
SMILES: [H]C([H])([H])C([H])([H])C([H])([H])C([H])([H])C([H])([H])C([H])([H])C([H])([H])C([H])([H])C([H])([H])C([H])([H])C([H])([H])C([H])([H])C([H])([H])C(=O)OC([H])([H])C([H])(OC(=O)C([H])([H])C([H])([H])C([H])([H])C([H])([H])C([H])([H])C([H])([H])C([H])([H])C([H])([H])C([H])([H])C([H])([H])C([H])([H])C([H])([H])C([H])([H])[H])C([H])([H])OP(=O)([O-])OC([H])([H])C([H])([H])[N+](C([H])([H])[H])(C([H])([H])[H])C([H])([H])[H]
InChI: InChI=1S/C36H72NO8P/c1-6-8-10-12-14-16-18-20-22-24-26-28-35(38)42-32-34(33-44-46(40,41)43-31-30-37(3,4)5)45-36(39)29-27-25-23-21-19-17-15-13-11-9-7-2/h34H,6-33H2,1-5H3
Instrument: waters xevo g2 TOF
Instrument type: ESI-TOF
Ms type: MS2
Ion mode: POSITIVE
Ionization: ESI
Collision energy: 0.6458333
Column name: Acquity CSHC18
Retention time: 10.069 min
Base peak: 678.50755
Precursor m/z: 678.50755
Precursor type: [M+H]+
m/z	relative intensity
86.0974	36
104.1079	4
109.1023	1
125.0008	7
146.9826	15
163.0162	7
181.0265	1
184.0744	999
185.0757	59
186.0788	9
267.1643	44
268.1677	7
283.1369	2
391.2251	9
392.2287	1
450.2986	198
451.302	49
452.3051	4
466.2002	5
468.2566	2
495.4415	26
496.445	8
497.4493	1
517.4232	11
518.427	7
583.3755	12
583.8799	8
584.3804	2
641.4162	32
642.4197	6
678.5081	248
679.5113	100
