Mass spectrum: citric acid; LC-ESI-QTOF; MS2; CE: 15.00;  [M+H]+
Name: citric acid
Class: NA
Formula: C6H8O7
Exact mass: 192.0270
SMILES: C(C(=O)O)C(CC(=O)O)(C(=O)O)O
InChI: InChI=1S/C6H8O7/c7-3(8)1-6(13,5(11)12)2-4(9)10/h13H,1-2H2,(H,7,8)(H,9,10)(H,11,12)
Instrument: Bruker MicrOTOF-Q
Instrument type: LC-ESI-QTOF
Ms type: MS2
Ion mode: POSITIVE
Ionization: ESI
Collision energy: 15.00
Column name: Acquity CSHC18
Retention time: NA
Base peak: 193.0343
Precursor m/z: 193.0343
Precursor type: [M+H]+
m/z	relative intensity
111.0042	27
129.0163	139
130.0267	7
138.8576	6
139.0005	999
139.2697	7
139.3677	6
139.4514	6
140.0044	39
157.0084	17
164.0958	8
834.0222	6
