Mass spectrum: Salicin-7-sulfate; LC-ESI-ITFT; MS2; CE: 20/50eV;  [M-H]-
Name: Salicin-7-sulfate
Class: Salicinoid
Formula: C13H18O10S
Exact mass: 366.0621
SMILES: OCC(O1)C(O)C(O)C(O)C1OC2=CC=CC=C2COS(=O)(O)=O
InChI: InChI=1S/C13H18O10S/c14-5-9-10(15)11(16)12(17)13(23-9)22-8-4-2-1-3-7(8)6-21-24(18,19)20/h1-4,9-17H,5-6H2,(H,18,19,20)
Instrument: Bruker timsTOF
Instrument type: LC-ESI-ITFT
Ms type: MS2
Ion mode: NEGATIVE
Ionization: ESI
Collision energy: 20/50eV
Column name: Acquity CSHC18
Retention time: 2.709 min
Base peak: 365.0547
Precursor m/z: 365.0547
Precursor type: [M-H]-
Precursor intensity: 105607.6
m/z	relative intensity
79.9574	32
95.953	8
96.9605	270
121.0292	34
123.0453	17
203.0022	28
259.0132	34
365.0548	999
