Mass spectrum: S-Adenosylhomocysteine; LC-ESI-ITFT; MS2; CE: 10;  [M-H]-
Name: S-Adenosylhomocysteine
Class: Nucleosides, nucleotides, and analogues; 5'-deoxyribonucleosides; 5'-deoxy-5'-thionucleosides
Formula: C14H20N6O5S
Exact mass: 384.12159
SMILES: N[C@@H](CCSC[C@H]1O[C@H]([C@H](O)[C@@H]1O)N1C=NC2=C1N=CN=C2N)C(O)=O
InChI: InChI=1S/C14H20N6O5S/c15-6(14(23)24)1-2-26-3-7-9(21)10(22)13(25-7)20-5-19-8-11(16)17-4-18-12(8)20/h4-7,9-10,13,21-22H,1-3,15H2,(H,23,24)(H2,16,17,18)/t6-,7+,9+,10+,13+/m0/s1
Instrument: Thermo Scientific Q-Exactive Focus
Instrument type: LC-ESI-ITFT
Ms type: MS2
Ion mode: NEGATIVE
Ionization: ESI
Collision energy: 10
Column name: Acquity CSHC18
Retention time: 0.367 min
Base peak: 383.11432
Precursor m/z: 383.11432
Precursor type: [M-H]-
m/z	relative intensity
71.0126	7
129.0005	4
134.0271	6
134.0461	257
176.0377	11
188.0379	30
248.0596	47
282.0666	12
383.1012	89
383.1141	999
