Mass spectrum: Monogalactosyldiacylglycerol (Plant); ESI-TOF; MS2; CE: 6.0000000;  [M+H]+
Name: Monogalactosyldiacylglycerol (Plant)
Class: NA
Formula: C43H70O10
Exact mass: 746.49690
SMILES: [H]OC([H])([H])C1([H])(OC([H])(OC([H])([H])C([H])(OC(=O)C([H])([H])C([H])([H])C([H])([H])C([H])([H])C([H])([H])C([H])([H])C([H])([H])C([H])=C([H])C([H])([H])C([H])=C([H])C([H])([H])C([H])=C([H])C([H])([H])C([H])([H])[H])C([H])([H])OC(=O)C([H])([H])C([H])([H])C([H])([H])C([H])([H])C([H])([H])C([H])=C([H])C([H])([H])C([H])=C([H])C([H])([H])C([H])=C([H])C([H])([H])C([H])([H])[H])C([H])(O[H])C([H])(O[H])C1([H])(O[H]))
InChI: InChI=1S/C43H70O10/c1-3-5-7-9-11-13-15-17-18-20-22-24-26-28-30-32-39(46)52-36(35-51-43-42(49)41(48)40(47)37(33-44)53-43)34-50-38(45)31-29-27-25-23-21-19-16-14-12-10-8-6-4-2/h5-8,11-14,17-19,21,36-37,40-44,47-49H,3-4,9-10,15-16,20,22-35H2,1-2H3
Instrument: waters xevo g2 TOF
Instrument type: ESI-TOF
Ms type: MS2
Ion mode: POSITIVE
Ionization: ESI
Collision energy: 6.0000000
Column name: Acquity CSHC18
Retention time: 10.394 min
Base peak: 747.50490
Precursor m/z: 747.50490
Precursor type: [M+H]+
m/z	relative intensity
135.1173	2
149.1336	2
213.1641	2
215.1795	9
231.1755	7
233.1896	13
259.2059	3
261.2204	7
272.1092	9
289.1483	55
305.2106	12
307.2277	89
308.2309	18
309.2427	18
317.18	111
333.1979	10
335.2595	103
336.262	13
337.2728	20
393.2305	745
393.7325	357
394.2322	103
394.7335	13
395.2286	10
435.204	11
469.2804	38
470.2843	23
493.4038	3
497.3111	18
567.4417	119
568.446	45
569.4494	10
585.4526	999
586.4564	418
587.4592	93
588.4635	10
729.4955	47
730.4993	20
747.5053	35
748.5116	15
