Mass spectrum: Guaiacol; ESI-TOF; MS2; CE: 6.0000000;  [M+H]+
Name: Guaiacol
Class: NA
Formula: C7H8O2
Exact mass: 124.05243
SMILES: COC1=CC=CC=C1O
InChI: InChI=1S/C7H8O2/c1-9-7-5-3-2-4-6(7)8/h2-5,8H,1H3
Instrument: waters xevo g2 TOF
Instrument type: ESI-TOF
Ms type: MS2
Ion mode: POSITIVE
Ionization: ESI
Collision energy: 6.0000000
Column name: Acquity CSHC18
Retention time: 2.241 min
Base peak: 125.06043
Precursor m/z: 125.06043
Precursor type: [M+H]+
m/z	relative intensity
77.0395	60
95.0494	244
96.053	11
101.0603	21
109.0283	33
115.0653	10
116.0543	5
123.0442	353
124.0509	139
125.0601	77
128.0491	1
129.0551	35
130.011	10
135.5344	27
137.0141	3
139.9883	30
143.0707	94
146.0337	173
147.5648	4
148.5451	25
149.0267	4
153.0528	13
156.5317	4
157.0669	23
158.1303	3
162.999	10
168.0411	22
172.9832	107
176.5415	15
177.0516	21
178.0483	4
179.9875	97
183.0445	298
184.051	94
184.5562	7
185.0598	126
186.0653	14
187.0756	54
195.0262	42
195.9819	41
204.9821	29
208.9826	52
209.9985	104
212.0146	45
215.0706	964
216.074	143
220.0073	9
221.0138	34
222.0498	14
223.9772	432
224.9802	46
229.0847	52
231.038	15
232.0382	17
236.082	131
237.0866	6
242.0976	9
245.0805	999
245.5689	3
246.0884	784
247.0615	470
248.0995	144
249.1029	13
251.1123	14
253.0766	10
268.07	275
269.0322	496
270.0503	84
272.0048	11
275.0248	4
283.1169	13
286.5836	10
287.0007	71
299.0904	35
300.026	29
302.024	436
303.0229	105
304.0298	10
305.0456	3
307.0024	13
320.041	23
323.0279	8
329.0586	6
331.0486	65
343.0506	28
344.0404	19
346.0147	218
347.0197	108
351.0232	4
357.0756	4
358.036	7
367.0127	3
369.1334	45
370.1355	6
372.9889	5
387.0055	4
391.1153	27
395.0483	10
398.0333	5
401.9844	3
423.0471	4
424.0605	111
425.0646	33
426.0994	5
511.1387	25
512.1417	30
513.1506	22
515.1643	4
517.116	13
519.1201	10
534.1495	65
546.0993	32
547.1057	26
548.0995	7
549.1022	13
569.3142	11
570.3169	3
