Mass spectrum: Tremulacin; LC-ESI-ITFT; MS2; CE: 20/50eV;  [M-H]-
Name: Tremulacin
Class: Salicinoid
Formula: C27H28O11
Exact mass: 528.1632
SMILES: C1CC(=O)C(C=C1)(C(=O)OCC2=CC=CC=C2OC3C(C(C(C(O3)CO)O)O)OC(=O)C4=CC=CC=C4)O
InChI: InChI=1S/C27H28O11/c28-14-19-21(30)22(31)23(38-24(32)16-8-2-1-3-9-16)25(37-19)36-18-11-5-4-10-17(18)15-35-26(33)27(34)13-7-6-12-20(27)29/h1-5,7-11,13,19,21-23,25,28,30-31,34H,6,12,14-15H2
Instrument: Bruker timsTOF
Instrument type: LC-ESI-ITFT
Ms type: MS2
Ion mode: NEGATIVE
Ionization: ESI
Collision energy: 20/50eV
Column name: Acquity CSHC18
Retention time: 8.072 min
Base peak: 527.1552
Precursor m/z: 527.1552
Precursor type: [M-H]-
Precursor intensity: 78911.81
m/z	relative intensity
121.0294	800
137.0253	183
155.0341	311
405.1202	650
406.1233	270
527.1551	999
