Mass spectrum: FAD; LC-ESI-QFT; MS2; CE: 30eV;  [M-H]-
Name: FAD
Class: NA
Formula: C27H33N9O15P2
Exact mass: 785.15713
SMILES: CC1=CC2=C(C=C1C)N(C[C@H](O)[C@H](O)[C@H](O)COP(O)(=O)OP(O)(=O)OC[C@H]1O[C@H]([C@H](O)[C@@H]1O)N1C=NC3=C1N=CN=C3N)C1=NC(=O)NC(=O)C1=N2
InChI: InChI=1S/C27H33N9O15P2/c1-10-3-12-13(4-11(10)2)35(24-18(32-12)25(42)34-27(43)33-24)5-14(37)19(39)15(38)6-48-52(44,45)51-53(46,47)49-7-16-20(40)21(41)26(50-16)36-9-31-17-22(28)29-8-30-23(17)36/h3-4,8-9,14-16,19-21,26,37-41H,5-7H2,1-2H3,(H,44,45)(H,46,47)(H2,28,29,30)(H,34,42,43)/t14-,15+,16+,19-,20+,21+,26+/m0/s1
Instrument: Q-Exactive Orbitrap, Thermo Scientfic; Ultimate 3000 HPLC, Thermo Scientfic
Instrument type: LC-ESI-QFT
Ms type: MS2
Ion mode: NEGATIVE
Ionization: ESI
Collision energy: 30eV
Column name: Acquity CSHC18
Retention time: 6.280 min
Base peak: 784.1498
Precursor m/z: 784.1498
Precursor type: [M-H]-
Precursor intensity: 113
m/z	relative intensity
55.436	11
61.5353	9
73.7363	11
73.9586	14
75.1934	11
78.5437	11
78.9575	630
83.1268	11
83.1561	11
86.4518	11
86.666	12
96.9681	999
101.6254	12
105.2283	10
108.601	13
134.0462	15
138.9787	18
144.5892	12
150.9793	14
158.9243	52
162.9791	50
176.9347	16
180.6409	12
180.9897	443
195.0055	81
204.4813	13
211.0012	45
236.6459	12
241.073	65
255.0888	70
272.9569	98
346.056	455
347.0595	18
408.0122	100
437.0869	131
517.0512	17
593.2021	16
641.7599	16
811.5967	15
