Mass spectrum: Pantothenic acid; LC-ESI-ITFT; MS2; CE: 30;  [M+H]+
Name: Pantothenic acid
Class: Organooxygen compounds; Alcohols and polyols; Polyols
Formula: C9H17NO5
Exact mass: 219.11067
SMILES: CC(C)(CO)[C@@H](O)C(=O)NCCC(O)=O
InChI: InChI=1S/C9H17NO5/c1-9(2,5-11)7(14)8(15)10-4-3-6(12)13/h7,11,14H,3-5H2,1-2H3,(H,10,15)(H,12,13)/t7-/m0/s1
Instrument: Thermo Scientific Q-Exactive Focus
Instrument type: LC-ESI-ITFT
Ms type: MS2
Ion mode: POSITIVE
Ionization: ESI
Collision energy: 30
Column name: Acquity CSHC18
Retention time: 0.914 min
Base peak: 220.11795
Precursor m/z: 220.11795
Precursor type: [M+H]+
m/z	relative intensity
57.0704	561
59.0497	332
67.0547	690
70.0292	834
72.0448	526
85.0651	457
90.0552	999
95.0494	453
98.0239	738
124.0757	600
