Mass spectrum: Ala-Ala; ESI-TOF; MS2; CE: 6.0000000;  [M+H]+
Name: Ala-Ala
Class: NA
Formula: C6H12N2O3
Exact mass: 160.08479
SMILES: CC(N)C(=O)NC(C)C(O)=O
InChI: InChI=1S/C6H12N2O3/c1-3(7)5(9)8-4(2)6(10)11/h3-4H,7H2,1-2H3,(H,8,9)(H,10,11)
Instrument: waters xevo g2 TOF
Instrument type: ESI-TOF
Ms type: MS2
Ion mode: POSITIVE
Ionization: ESI
Collision energy: 6.0000000
Column name: Acquity CSHC18
Retention time: 0.494 min
Base peak: 161.09279
Precursor m/z: 161.09279
Precursor type: [M+H]+
m/z	relative intensity
90.0555	23
113.9639	72
115.0862	46
133.0978	11
141.9591	145
143.0827	13
161.0926	999
162.0949	78
183.0746	237
184.0759	15
205.0554	5
343.1607	11
359.1228	17
374.0901	17
375.0965	16
534.1746	25
556.1553	21
578.1378	21
