Mass spectrum: L-Gulonolactone; LC-ESI-ITFT; MS2; CE: 10;  [M-H]-
Name: L-Gulonolactone
Class: Organoheterocyclic compounds; Lactones; Gamma butyrolactones
Formula: C6H10O6
Exact mass: 178.04774
SMILES: [H][C@@]1(OC(=O)[C@@H](O)[C@H]1O)[C@@H](O)CO
InChI: InChI=1S/C6H10O6/c7-1-2(8)5-3(9)4(10)6(11)12-5/h2-5,7-10H,1H2/t2-,3+,4-,5+/m0/s1
Instrument: Thermo Scientific Q-Exactive Focus
Instrument type: LC-ESI-ITFT
Ms type: MS2
Ion mode: NEGATIVE
Ionization: ESI
Collision energy: 10
Column name: Acquity CSHC18
Retention time: 0.360 min
Base peak: 177.04047
Precursor m/z: 177.04047
Precursor type: [M-H]-
m/z	relative intensity
57.0334	244
59.0127	743
71.0126	397
75.0075	235
85.0282	219
89.0232	959
99.0075	329
129.0182	660
141.0182	207
177.0396	999
