Mass spectrum: Prostaglandin F2-alpha Alcohol methyl ether; ESI-TOF; MS2; CE: 0.6458333;  [M+H]+
Name: Prostaglandin F2-alpha Alcohol methyl ether
Class: NA
Formula: C21H38O4
Exact mass: 354.27701
SMILES: CCCCCC(C=CC1C(CC(C1CC=CCCCCOC)O)O)O
InChI: InChI=1S/C21H38O4/c1-3-4-8-11-17(22)13-14-19-18(20(23)16-21(19)24)12-9-6-5-7-10-15-25-2/h6,9,13-14,17-24H,3-5,7-8,10-12,15-16H2,1-2H3
Instrument: waters xevo g2 TOF
Instrument type: ESI-TOF
Ms type: MS2
Ion mode: POSITIVE
Ionization: ESI
Collision energy: 0.6458333
Column name: Acquity CSHC18
Retention time: 4.244 min
Base peak: 355.28501
Precursor m/z: 355.28501
Precursor type: [M+H]+
m/z	relative intensity
69.0689	46
91.0552	336
93.071	300
95.086	210
97.1027	37
99.0806	12
105.0712	373
107.0868	186
109.1024	73
111.083	21
115.0542	20
117.0708	343
119.0865	360
121.1027	203
130.0768	64
131.0868	643
132.0895	60
133.1022	318
135.119	120
145.1022	505
146.1055	38
147.1175	199
149.1326	56
155.0843	13
157.1024	397
158.1053	53
159.1179	442
160.1221	42
161.1303	151
163.1485	44
170.1077	31
171.1181	619
172.1202	43
173.1331	250
174.1372	20
175.1461	92
185.1335	13
186.1342	77
187.1483	164
189.164	80
191.1779	19
199.1491	178
200.1544	24
201.164	98
209.0838	38
211.1013	28
213.1638	59
214.1715	12
217.1956	16
225.0595	103
227.1792	63
231.2089	25
233.2255	33
241.1957	48
243.212	262
244.214	43
245.2251	39
269.2274	587
270.2305	110
275.2375	38
276.238	6
287.2366	178
288.242	39
301.2522	146
302.258	21
315.2274	19
318.1638	261
319.2144	72
320.2698	14
329.1796	999
330.1831	178
331.1962	869
332.1982	164
337.2756	17
344.1491	22
347.1619	244
350.1733	27
357.2135	63
