Mass spectrum: 5-Hydroxyindole; LC-ESI-QTOF; MS2; CE: 15.00;  [M+H]+
Name: 5-Hydroxyindole
Class: NA
Formula: C8H7NO
Exact mass: 133.0528
SMILES: C1=CC2=C(C=CN2)C=C1O
InChI: InChI=1S/C8H7NO/c10-7-1-2-8-6(5-7)3-4-9-8/h1-5,9-10H
Instrument: Bruker MicrOTOF-Q
Instrument type: LC-ESI-QTOF
Ms type: MS2
Ion mode: POSITIVE
Ionization: ESI
Collision energy: 15.00
Column name: Acquity CSHC18
Retention time: NA
Base peak: 134.0600
Precursor m/z: 134.0600
Precursor type: [M+H]+
m/z	relative intensity
106.0666	25
107.0496	37
108.0507	2
108.0569	1
116.0505	336
117.0568	133
118.0588	1
118.0629	6
132.0449	20
133.0529	215
134.0607	999
135.0637	101
