Mass spectrum: Resveratrol; LC-ESI-QFT; MS2; CE: NCE_15_30_82;  [M-H]-
Name: Resveratrol
Class: NA
Formula: C14H12O3
Exact mass: 228.0786
SMILES: C1=CC(=CC=C1C=CC2=CC(=CC(=C2)O)O)O
InChI: InChI=1S/C14H12O3/c15-12-5-3-10(4-6-12)1-2-11-7-13(16)9-14(17)8-11/h1-9,15-17H
Instrument: Thermo_Qexactive_Plus
Instrument type: LC-ESI-QFT
Ms type: MS2
Ion mode: NEGATIVE
Ionization: ESI
Collision energy: NCE_15_30_82
Column name: Acquity CSHC18
Retention time: 5.507 min
Base peak: 227.0712
Precursor m/z: 227.0712
Precursor type: [M-H]-
Precursor intensity: 94245900
m/z	relative intensity
70.9928	2
93.0329	2
107.0486	3
119.0486	3
141.0704	3
143.0497	4
144.053	4
145.0289	5
157.0642	5
158.0688	5
159.0803	6
159.2917	6
160.0841	7
168.0566	8
181.0651	8
182.0726	9
183.078	9
184.0711	15
185.0606	17
186.0639	25
199.0766	40
212.048	40
225.0546	50
226.0587	144
227.0677	999
