Mass spectrum: Gibberellin A3; LC-ESI-ITFT; MS2; CE: 10;  [M+H]+
Name: Gibberellin A3
Class: Lipids and lipid-like molecules; Prenol lipids; Diterpenoids
Formula: C19H22O6
Exact mass: 346.14164
SMILES: [H][C@@]12CC[C@]3(O)C[C@]1(CC3=C)[C@@H](C(O)=O)[C@]1([H])[C@]3(C)[C@@H](O)C=C[C@@]21OC3=O
InChI: InChI=1S/C19H22O6/c1-9-7-17-8-18(9,24)5-3-10(17)19-6-4-11(20)16(2,15(23)25-19)13(19)12(17)14(21)22/h4,6,10-13,20,24H,1,3,5,7-8H2,2H3,(H,21,22)/t10-,11+,12-,13-,16+,17+,18+,19-/m1/s1
Instrument: Thermo Scientific Q-Exactive Focus
Instrument type: LC-ESI-ITFT
Ms type: MS2
Ion mode: POSITIVE
Ionization: ESI
Collision energy: 10
Column name: Acquity CSHC18
Retention time: 0.348 min
Base peak: 347.14890
Precursor m/z: 347.14890
Precursor type: [M+H]+
m/z	relative intensity
239.1429	437
267.1377	165
283.1325	256
283.1688	235
301.1433	152
301.1794	153
311.1275	520
329.1381	999
329.1744	124
347.185	253
