Mass spectrum: 1,2-di-O-octadecyl-sn-glycero-3-phosphocholine; ESI-TOF; MS2; CE: 6.0000000;  [M+H]+
Name: 1,2-di-O-octadecyl-sn-glycero-3-phosphocholine
Class: NA
Formula: C44H92NO6P
Exact mass: 761.66623
SMILES: [H]C([H])([H])C([H])([H])C([H])([H])C([H])([H])C([H])([H])C([H])([H])C([H])([H])C([H])([H])C([H])([H])C([H])([H])C([H])([H])C([H])([H])C([H])([H])C([H])([H])C([H])([H])C([H])([H])C([H])([H])C([H])([H])OC([H])([H])C([H])(OC([H])([H])C([H])([H])C([H])([H])C([H])([H])C([H])([H])C([H])([H])C([H])([H])C([H])([H])C([H])([H])C([H])([H])C([H])([H])C([H])([H])C([H])([H])C([H])([H])C([H])([H])C([H])([H])C([H])([H])C([H])([H])[H])C([H])([H])OP(=O)([O-])OC([H])([H])C([H])([H])[N+](C([H])([H])[H])(C([H])([H])[H])C([H])([H])[H]
InChI: InChI=1S/C44H92NO6P/c1-6-8-10-12-14-16-18-20-22-24-26-28-30-32-34-36-39-48-42-44(43-51-52(46,47)50-41-38-45(3,4)5)49-40-37-35-33-31-29-27-25-23-21-19-17-15-13-11-9-7-2/h44H,6-43H2,1-5H3
Instrument: waters xevo g2 TOF
Instrument type: ESI-TOF
Ms type: MS2
Ion mode: POSITIVE
Ionization: ESI
Collision energy: 6.0000000
Column name: Acquity CSHC18
Retention time: 12.443 min
Base peak: 762.67423
Precursor m/z: 762.67423
Precursor type: [M+H]+
m/z	relative intensity
99.9694	1
129.9795	1
173.9622	1
230.8904	1
401.8174	6
408.8018	9
409.3017	4
410.3023	2
411.3011	1
465.793	1
762.6742	999
763.6769	507
