Mass spectrum: Phosphocreatine; LC-ESI-QTOF; MS2; CE: 60;  [M+H]+
Name: Phosphocreatine
Class: NA
Formula: C4H10N3O5P
Exact mass: 211.03581
SMILES: CN(CC(=O)O)C(=NP(=O)(O)O)N
InChI: InChI=1S/C4H10N3O5P/c1-7(2-3(8)9)4(5)6-13(10,11)12/h2H2,1H3,(H,8,9)(H4,5,6,10,11,12)
Instrument: impact II
Instrument type: LC-ESI-QTOF
Ms type: MS2
Ion mode: POSITIVE
Ionization: ESI
Collision energy: 60
Column name: Acquity CSHC18
Retention time: 1.808 min
Base peak: 212.04310
Precursor m/z: 212.04310
Precursor type: [M+H]+
m/z	relative intensity
45.0529	138
79.9895	130
80.9736	301
98.0002	226
98.9844	999
104.985	132
105.9687	216
116.9951	127
123.98	239
