Mass spectrum: caffeine; LC-ESI-ITFT; MS2; CE: 0.3;  [M+H]+
Name: caffeine
Class: alkaloids
Formula: C8H10N4O2
Exact mass: 194.0804
SMILES: CN1C=NC2=C1C(=O)N(C(=O)N2C)C
InChI: InChI=1S/C8H10N4O2/c1-10-4-9-6-5(10)7(13)12(3)8(14)11(6)2/h4H,1-3H3
Instrument: LTQ-Orbitrap XL hybrid mass spectrometer (Thermo Scientific)
Instrument type: LC-ESI-ITFT
Ms type: MS2
Ion mode: POSITIVE
Ionization: ESI
Collision energy: 0.3
Column name: Acquity CSHC18
Retention time: 5.981 min
Base peak: 195.0880
Precursor m/z: 195.0880
Precursor type: [M+H]+
Precursor intensity: 160385200
m/z	relative intensity
50.5278	8
53.2345	8
53.8174	8
54.6714	8
57.0954	7
58.0655	8
61.3238	6
61.6712	7
63.3944	6
71.6434	7
81.7464	6
88.4896	6
90.1298	6
103.1649	9
110.0713	28
125.2	7
138.0664	932
138.0707	11
151.0982	26
161.1949	16
163.0618	15
195.0768	10
195.0883	999
