Mass spectrum: 4-Hydroxybenzoic acid; LC-ESI-ITFT; MS2; CE: 20;  [M-H]-
Name: 4-Hydroxybenzoic acid
Class: Benzenoids; Benzene and substituted derivatives; Benzoic acids and derivatives
Formula: C7H6O3
Exact mass: 138.03169
SMILES: OC(=O)C1=CC=C(O)C=C1
InChI: InChI=1S/C7H6O3/c8-6-3-1-5(2-4-6)7(9)10/h1-4,8H,(H,9,10)
Instrument: Thermo Scientific Q-Exactive Focus
Instrument type: LC-ESI-ITFT
Ms type: MS2
Ion mode: NEGATIVE
Ionization: ESI
Collision energy: 20
Column name: Acquity CSHC18
Retention time: 0.642 min
Base peak: 137.02441
Precursor m/z: 137.02441
Precursor type: [M-H]-
m/z	relative intensity
63.8404	1
65.0384	22
93.0311	2
93.0334	999
97.2832	1
99.097	1
100.9869	1
133.5022	1
136.862	3
151.0242	1
