Mass spectrum: H-Tyr-Ile-OH; LC-ESI-QTOF; MS2; CE: 15.00;  [M+H]+
Name: H-Tyr-Ile-OH
Class: NA
Formula: C15H22N2O4
Exact mass: 294.1580
SMILES: CCC(C)C(C(=O)O)NC(=O)C(CC1=CC=C(C=C1)O)N
InChI: InChI=1S/C15H22N2O4/c1-3-9(2)13(15(20)21)17-14(19)12(16)8-10-4-6-11(18)7-5-10/h4-7,9,12-13,18H,3,8,16H2,1-2H3,(H,17,19)(H,20,21)
Instrument: Bruker MicrOTOF-Q
Instrument type: LC-ESI-QTOF
Ms type: MS2
Ion mode: POSITIVE
Ionization: ESI
Collision energy: 15.00
Column name: Acquity CSHC18
Retention time: NA
Base peak: 295.1652
Precursor m/z: 295.1652
Precursor type: [M+H]+
m/z	relative intensity
147.06	14
162.06	29
163.06	39
164.08	14
174.09	19
175.11	9
176.07	14
177.07	9
187.09	9
188.12	14
189.23	12
190.12	179
191.13	29
202.15	14
204.14	434
205.14	69
207.07	14
208.11	9
214.12	24
221.16	24
231.14	54
232.07	531
233.14	89
236.13	999
237.13	119
238.13	9
250.0846	670
252.14	19
254.93	19
260.13	209
261.13	54
263.76	9
275.61	9
277.15	184
278.1333	601
279.14	209
293.53	14
295.6088	603
297.16	19
301.02	9
302.3	14
364.03	9
390.35	14
405.41	9
411.18	14
476.86	14
505.53	14
713.06	14
