Mass spectrum: Carvacrol; LC-ESI-QTOF; MS2; CE: 15.00;  [M-C3H6+H]+
Name: Carvacrol
Class: NA
Formula: C10H14O
Exact mass: 150.1045
SMILES: CC1=C(C=C(C=C1)C(C)C)O
InChI: InChI=1S/C10H14O/c1-7(2)9-5-4-8(3)10(11)6-9/h4-7,11H,1-3H3
Instrument: Bruker MicrOTOF-Q
Instrument type: LC-ESI-QTOF
Ms type: MS2
Ion mode: POSITIVE
Ionization: ESI
Collision energy: 15.00
Column name: Acquity CSHC18
Retention time: NA
Base peak: 109.0648
Precursor m/z: 109.0648
Precursor type: [M-C3H6+H]+
m/z	relative intensity
91.0502	245
93.0301	15
94.0373	999
95.0418	84
107.0452	883
108.0504	15
109.0601	684
109.5539	15
110.0661	65
