Mass spectrum: (20R,22S,25S)-22,26-Epimino-5alpha-cholestan-3beta,20-diol; APCI-ITFT; MS2; CE: 70 HCD;  [M+H]+
Name: (20R,22S,25S)-22,26-Epimino-5alpha-cholestan-3beta,20-diol
Class: NA
Formula: C27H47NO2
Exact mass: 417.36068
SMILES: C[C@H](CN1)CC[C@H]1[C@](C)(O)[C@H]2CC[C@@]3([H])[C@]4([H])CC[C@@]5([H])C[C@@H](O)CC[C@]5(C)[C@@]4([H])CC[C@]23C
InChI: InChI=1S/C27H47NO2/c1-17-5-10-24(28-16-17)27(4,30)23-9-8-21-20-7-6-18-15-19(29)11-13-25(18,2)22(20)12-14-26(21,23)3/h17-24,28-30H,5-16H2,1-4H3/t17-,18-,19-,20-,21-,22-,23-,24-,25-,26-,27+/m0/s1
Instrument: Orbitrap Elite
Instrument type: APCI-ITFT
Ms type: MS2
Ion mode: POSITIVE
Ionization: APCI
Collision energy: 70 HCD
Column name: Acquity CSHC18
Retention time: 0.062 min
Base peak: 418.36780
Precursor m/z: 418.36780
Precursor type: [M+H]+
Precursor intensity: 2998040000
m/z	relative intensity
77.0384	41
79.0542	281
81.0699	381
83.0855	27
84.0807	40
91.0542	206
93.0699	361
95.0858	285
96.0809	33
98.0962	999
98.1045	33
105.0449	36
105.0699	209
107.0855	406
109.1012	167
112.1116	39
119.0859	131
121.1009	142
123.117	36
124.112	30
126.1276	336
131.0851	37
133.1005	108
135.1169	97
145.1013	61
147.1165	140
149.1319	102
152.1441	58
159.1169	46
161.1325	234
163.1477	60
173.1317	30
175.149	30
400.3568	574
