Mass spectrum: 5-METHYLCYTOSINE; LC-ESI-QFT; MS2; CE: 30eV;  [M+H]+
Name: 5-METHYLCYTOSINE
Class: NA
Formula: C5H7N3O
Exact mass: 125.05891
SMILES: CC1=C(N)NC(=O)N=C1
InChI: InChI=1S/C5H7N3O/c1-3-2-7-5(9)8-4(3)6/h2H,1H3,(H3,6,7,8,9)
Instrument: Q-Exactive Orbitrap, Thermo Scientfic; Ultimate 3000 HPLC, Thermo Scientfic
Instrument type: LC-ESI-QFT
Ms type: MS2
Ion mode: POSITIVE
Ionization: ESI
Collision energy: 30eV
Column name: Acquity CSHC18
Retention time: 0.653 min
Base peak: 126.0662
Precursor m/z: 126.0662
Precursor type: [M+H]+
Precursor intensity: 190
m/z	relative intensity
51.7302	14
54.0347	24
54.1491	14
54.3964	12
54.6658	14
55.9352	23
56.0503	74
60.5141	13
61.2081	14
69.8695	16
71.0247	33
72.7426	16
73.8024	15
75.0269	84
80.8269	18
81.0455	45
81.4372	17
81.7198	16
82.0295	24
83.0611	573
84.9383	24
84.9605	71
86.4503	17
87.1373	14
97.2387	19
108.0563	377
108.2381	19
109.0403	840
110.0438	19
114.9721	29
125.7015	17
127.0637	250
127.07	999
