Mass spectrum: Sanguinarine; LC-ESI-ITFT; MS2; CE: 0.3;  [M]+
Name: Sanguinarine
Class: alkaloids
Formula: [C20H14NO4]+
Exact mass: 332.0917
SMILES: C[N+]1=C2C(=C3C=CC4=C(C3=C1)OCO4)C=CC5=CC6=C(C=C52)OCO6
InChI: InChI=1S/C20H14NO4/c1-21-8-15-12(4-5-16-20(15)25-10-22-16)13-3-2-11-6-17-18(24-9-23-17)7-14(11)19(13)21/h2-8H,9-10H2,1H3/q+1
Instrument: LTQ-Orbitrap XL hybrid mass spectrometer (Thermo Scientific)
Instrument type: LC-ESI-ITFT
Ms type: MS2
Ion mode: POSITIVE
Ionization: ESI
Collision energy: 0.3
Column name: Acquity CSHC18
Retention time: 6.176 min
Base peak: 332.0912
Precursor m/z: 332.0912
Precursor type: [M]+
Precursor intensity: 73899610
m/z	relative intensity
83.6281	5
85.9269	7
99.709	7
113.4683	6
138.5509	6
139.6308	6
144.8677	8
153.0533	7
166.9492	10
166.9602	7
168.1164	7
176.5918	6
204.8323	7
205.3294	8
239.0403	7
244.0759	12
246.0908	23
262.4774	7
272.0723	19
274.0865	159
275.0898	14
276.1017	43
284.7473	9
287.0785	7
301.9334	8
302.0814	256
303.0863	31
304.097	999
305.1003	100
314.0774	12
317.0682	125
325.3533	7
330.0761	204
331.0823	26
332.0915	573
