Mass spectrum: Zeatin; LC-ESI-QTOF; MS2; CE: 50eV;  [M+H]+
Name: Zeatin
Class: purine
Formula: C10H13N5O
Exact mass: 219.1120
SMILES: CC(=CCNC1=NC=NC2=C1NC=N2)CO
InChI: InChI=1S/C10H13N5O/c1-7(4-16)2-3-11-9-8-10(13-5-12-8)15-6-14-9/h2,5-6,16H,3-4H2,1H3,(H2,11,12,13,14,15)
Instrument: TIMS-TOF Pro, Bruker Daltonik; Elute UHPLC System, Bruker Daltonik
Instrument type: LC-ESI-QTOF
Ms type: MS2
Ion mode: POSITIVE
Ionization: ESI
Collision energy: 50eV
Column name: Acquity CSHC18
Retention time: 2.838 min
Base peak: 220.1146
Precursor m/z: 220.1146
Precursor type: [M+H]+
Precursor intensity: 332228.7
m/z	relative intensity
39.0222	1
41.0377	4
43.0165	9
65.0124	8
67.0298	4
88.4474	1
92.0221	22
109.0345	3
119.0316	74
120.0325	3
125.5669	2
136.0348	5
136.0588	999
136.3903	5
137.0489	3
137.06	22
148.0585	77
149.0603	5
159.063	6
185.0676	2
187.0781	5
202.1031	94
203.1036	5
220.1146	124
