Mass spectrum: O-acyl sugar AS10; LC-ESI-QTOF; MS2; CE: 22.5eV; [M+Na]+
Name: O-acyl sugar AS10
Class: O-acyl sugar
Formula: C30H50O15
Exact mass: 650.3150
SMILES: CC(CC)C(=O)O[C@H]1[C@H](O[C@H](CO)[C@@H](OC(=O)C(C)CCC)[C@@H]1OC(=O)C(C)CC)O[C@]1(CO)O[C@H](CO)[C@@H](OC(C)=O)[C@@H]1O
InChI: InChI=1S/C30H50O15/c1-8-11-17(6)28(38)41-21-19(12-31)40-29(45-30(14-33)25(35)22(39-18(7)34)20(13-32)44-30)24(43-27(37)16(5)10-3)23(21)42-26(36)15(4)9-2/h15-17,19-25,29,31-33,35H,8-14H2,1-7H3/t15?,16?,17?,19-,20-,21-,22-,23+,24-,25+,29-,30+/m1/s1
Instrument: Microtof-q MS
Instrument type: LC-ESI-QTOF
Ms type: MS2
Ion mode: POSITIVE
Ionization: ESI
Collision energy: 22.5eV
Column name: Acquity CSH C18 column (particle size 1.7 μm, column length 2.1 × 50 mm) (Waters)
Retention time: NA
Base peak: 673.3050
Precursor m/z: 673.3050
Precursor type: [M+Na]+
m/z	relative intensity
97.0276	34
205.0700	57
353.1550	35
367.1767	19
469.2377	310
557.2244	48
571.2365	27
673.3050	999
