Mass spectrum: MAG 16:0; LC-ESI-QTOF; MS2; CE: 20-40eV;  [M+H]+
Name: MAG 16:0
Class: glycerolipid
Formula: C19H38O4
Exact mass: 330.2770
SMILES: CCCCCCCCCCCCCCCC(=O)OCC(CO)O
InChI: InChI=1S/C19H38O4/c1-2-3-4-5-6-7-8-9-10-11-12-13-14-15-19(22)23-17-18(21)16-20/h18,20-21H,2-17H2,1H3
Instrument: Impact II, Bruker; Dionex 3000, Thermo Scientific
Instrument type: LC-ESI-QTOF
Ms type: MS2
Ion mode: POSITIVE
Ionization: ESI
Collision energy: 20-40eV
Column name: Acquity CSHC18
Retention time: 23.872 min
Base peak: 331.2833
Precursor m/z: 331.2833
Precursor type: [M+H]+
Precursor intensity: 54051.75
m/z	relative intensity
95.0835	999
96.0862	37
97.1001	39
99.1132	34
109.0997	231
111.1152	59
123.114	113
137.1304	66
167.1421	36
194.1043	32
201.125	31
211.1222	33
221.2254	38
239.2359	288
240.2376	97
257.2457	143
304.1846	80
313.2752	482
314.2759	85
