Mass spectrum: Isospinosin; LC-ESI-QTOF; MS2; CE: 20-40eV;  [M+H]+
Name: Isospinosin
Class: Flavonoid C- glycosides
Formula: C28H32O15
Exact mass: 608.1741
SMILES: COC=1C=C(C=2C(C=C(C3=CC=C(C=C3)O)OC2C1C4(C(C(C(C(CO)(O4)[H])(O)[H])(O)[H])(OC5(C(C(C(C(CO)(O5)[H])(O)[H])(O)[H])(O)[H])[H])[H])[H])=O)O
InChI: InChI=1S/C28H32O15/c1-39-15-7-13(33)18-12(32)6-14(10-2-4-11(31)5-3-10)40-25(18)19(15)26-27(23(37)21(35)16(8-29)41-26)43-28-24(38)22(36)20(34)17(9-30)42-28/h2-7,16-17,20-24,26-31,33-38H,8-9H2,1H3
Instrument: Impact II, Bruker; Dionex 3000, Thermo Scientific
Instrument type: LC-ESI-QTOF
Ms type: MS2
Ion mode: POSITIVE
Ionization: ESI
Collision energy: 20-40eV
Column name: Acquity CSHC18
Retention time: 5.464 min
Base peak: 609.1812
Precursor m/z: 609.1812
Precursor type: [M+H]+
Precursor intensity: 257997.4
m/z	relative intensity
177.0365	240
337.09	561
609.3235	999
