Mass spectrum: CREATININE; LC-ESI-QTOF; MS2; CE: 40;  [M+H]+
Name: CREATININE
Class: NA
Formula: C4H7N3O
Exact mass: 113.05891
SMILES: CN1CC(=O)N=C1N
InChI: InChI=1S/C4H7N3O/c1-7-2-3(8)6-4(7)5/h2H2,1H3,(H2,5,6,8)
Instrument: Agilent 6530Â Q-TOF LC/MS
Instrument type: LC-ESI-QTOF
Ms type: MS2
Ion mode: POSITIVE
Ionization: ESI
Collision energy: 40
Column name: NA
Retention time: 0.200 min
Base peak: 114.06848
Precursor m/z: 114.06848
Precursor type: [M+H]+
Precursor intensity: 53.5
m/z	relative intensity
41.0192	32
41.0229	46
41.0265	42
41.0302	35
42.0274	36
42.0311	45
42.0348	39
43.0177	58
43.0215	252
43.0252	389
43.029	388
43.0328	322
43.0365	245
43.0403	186
43.044	141
43.0478	110
43.0516	88
43.0553	67
43.0591	46
44.0044	38
44.0082	67
44.012	67
44.0158	58
44.0196	46
44.0234	35
44.0386	187
44.0424	672
44.0462	999
44.05	960
44.0538	787
44.0576	621
44.0614	468
44.0652	348
44.069	271
44.0728	218
44.0766	178
44.0804	138
44.0843	103
44.0881	70
44.0919	65
44.0957	52
44.0995	39
