Mass spectrum: Quinolinic acid; LC-ESI-ITFT; MS2; CE: 100;  [M-H]-
Name: Quinolinic acid
Class: Organoheterocyclic compounds; Pyridines and derivatives; Pyridinecarboxylic acids and derivatives
Formula: C7H5NO4
Exact mass: 167.02186
SMILES: OC(=O)C1=CC=CN=C1C(O)=O
InChI: InChI=1S/C7H5NO4/c9-6(10)4-2-1-3-8-5(4)7(11)12/h1-3H,(H,9,10)(H,11,12)
Instrument: Thermo Scientific Q-Exactive Focus
Instrument type: LC-ESI-ITFT
Ms type: MS2
Ion mode: NEGATIVE
Ionization: ESI
Collision energy: 100
Column name: Acquity CSHC18
Retention time: 2.581 min
Base peak: 166.01459
Precursor m/z: 166.01459
Precursor type: [M-H]-
m/z	relative intensity
61.4502	510
71.0596	474
92.5138	999
97.7926	470
101.6467	469
102.3196	486
145.3196	492
150.7508	479
159.424	494
162.0539	471
