Mass spectrum: Benzamide; LC-ESI-ITFT; MS2; CE: 100;  [M+H]+
Name: Benzamide
Class: Benzenoids; Benzene and substituted derivatives; Benzoic acids and derivatives
Formula: C7H7NO
Exact mass: 121.05276
SMILES: NC(=O)C1=CC=CC=C1
InChI: InChI=1S/C7H7NO/c8-7(9)6-4-2-1-3-5-6/h1-5H,(H2,8,9)
Instrument: Thermo Scientific Q-Exactive Focus
Instrument type: LC-ESI-ITFT
Ms type: MS2
Ion mode: POSITIVE
Ionization: ESI
Collision energy: 100
Column name: Acquity CSHC18
Retention time: 1.523 min
Base peak: 122.06004
Precursor m/z: 122.06004
Precursor type: [M+H]+
m/z	relative intensity
50.0156	999
51.0235	64
53.0027	224
65.0026	283
66.0105	60
74.0155	26
75.1229	26
93.6684	27
115.7864	29
126.2048	25
