Mass spectrum: 18:1-2:0 DG; ESI-TOF; MS2; CE: 6.0000000;  [M+H]+
Name: 18:1-2:0 DG
Class: NA
Formula: C23H42O5
Exact mass: 398.30322
SMILES: [H]OC([H])([H])C([H])(OC(=O)C([H])([H])[H])C([H])([H])OC(=O)C([H])([H])C([H])([H])C([H])([H])C([H])([H])C([H])([H])C([H])([H])C([H])([H])C([H])=C([H])C([H])([H])C([H])([H])C([H])([H])C([H])([H])C([H])([H])C([H])([H])C([H])([H])C([H])([H])[H]
InChI: InChI=1S/C23H42O5/c1-3-4-5-6-7-8-9-10-11-12-13-14-15-16-17-18-23(26)27-20-22(19-24)28-21(2)25/h10-11,22,24H,3-9,12-20H2,1-2H3
Instrument: waters xevo g2 TOF
Instrument type: ESI-TOF
Ms type: MS2
Ion mode: POSITIVE
Ionization: ESI
Collision energy: 6.0000000
Column name: Acquity CSHC18
Retention time: 8.986 min
Base peak: 399.31122
Precursor m/z: 399.31122
Precursor type: [M+H]+
m/z	relative intensity
98.9757	12
112.9917	8
117.0553	193
118.0589	12
135.1172	5
173.0127	29
188.9852	1
198.128	8
219.1326	85
219.6356	14
247.2435	14
265.2532	104
266.2557	17
295.1484	6
321.211	43
322.2129	3
339.29	999
340.2937	244
341.296	35
381.3006	396
382.3049	100
383.3064	8
399.3113	190
400.3144	48
