Mass spectrum: 5-HYDROXYTRYPTOPHAN; LC-ESI-QTOF; MS2; CE: 20;  [M+H]+
Name: 5-HYDROXYTRYPTOPHAN
Class: NA
Formula: C11H12N2O3
Exact mass: 220.08479
SMILES: N[C@@H](CC1=CNC2=C1C=C(O)C=C2)C(O)=O
InChI: InChI=1S/C11H12N2O3/c12-9(11(15)16)3-6-5-13-10-2-1-7(14)4-8(6)10/h1-2,4-5,9,13-14H,3,12H2,(H,15,16)/t9-/m0/s1
Instrument: Agilent 6530Â Q-TOF LC/MS
Instrument type: LC-ESI-QTOF
Ms type: MS2
Ion mode: POSITIVE
Ionization: ESI
Collision energy: 20
Column name: NA
Retention time: 0.200 min
Base peak: 221.09364
Precursor m/z: 221.09364
Precursor type: [M+H]+
Precursor intensity: 62.5
m/z	relative intensity
55.0148	45
58.0678	47
65.0389	47
74.0257	47
77.0364	52
79.0591	60
80.0277	64
89.0376	66
103.0674	66
105.0757	72
106.0797	75
107.0559	86
115.0694	94
116.0644	106
117.0761	114
120.0684	127
130.0748	131
131.0669	165
132.0958	168
133.0625	177
134.0958	185
135.0565	186
142.0722	186
144.036	200
146.0757	214
148.0879	219
158.0813	222
159.099	276
160.0945	327
162.0912	337
175.1004	359
186.0701	899
204.0879	999
