Mass spectrum: Ceramide(d18:1/18:0); LC-ESI-ITFT; MS2; CE: 30;  [M-H]-
Name: Ceramide(d18:1/18:0)
Class: Lipids and lipid-like molecules; Sphingolipids; Ceramides
Formula: C36H71NO3
Exact mass: 565.54340
SMILES: CCCCCCCCCCCCCCCCCC(=O)N[C@@H](CO)[C@H](O)\C=C\CCCCCCCCCCCCC
InChI: InChI=1S/C36H71NO3/c1-3-5-7-9-11-13-15-17-18-20-22-24-26-28-30-32-36(40)37-34(33-38)35(39)31-29-27-25-23-21-19-16-14-12-10-8-6-4-2/h29,31,34-35,38-39H,3-28,30,32-33H2,1-2H3,(H,37,40)/b31-29+/t34-,35+/m0/s1
Instrument: Thermo Scientific Q-Exactive Focus
Instrument type: LC-ESI-ITFT
Ms type: MS2
Ion mode: NEGATIVE
Ionization: ESI
Collision energy: 30
Column name: Acquity CSHC18
Retention time: 0.926 min
Base peak: 564.53613
Precursor m/z: 564.53613
Precursor type: [M-H]-
m/z	relative intensity
237.2219	311
263.2379	210
265.2534	201
282.2799	214
283.264	153
308.2956	999
324.2902	149
532.5085	103
534.5244	216
564.535	382
