Mass spectrum: (20R)-3beta,16beta-Diacetoxy-20-(5-methyl-pyridyl)-5alpha-pregnan-20-ol; APCI-ITFT; MS2; CE: 35 CID;  [M+H]+
Name: (20R)-3beta,16beta-Diacetoxy-20-(5-methyl-pyridyl)-5alpha-pregnan-20-ol
Class: NA
Formula: C31H45NO5
Exact mass: 511.32977
SMILES: C[C@](O)(C1=NC=C(C)C=C1)[C@H]2[C@@H](OC(C)=O)C[C@@]3([H])[C@]4([H])CC[C@@]5([H])C[C@@H](OC(C)=O)CC[C@]5(C)[C@@]4([H])CC[C@]23C
InChI: InChI=1S/C31H45NO5/c1-18-7-10-27(32-17-18)31(6,35)28-26(37-20(3)34)16-25-23-9-8-21-15-22(36-19(2)33)11-13-29(21,4)24(23)12-14-30(25,28)5/h7,10,17,21-26,28,35H,8-9,11-16H2,1-6H3/t21-,22-,23+,24-,25-,26-,28-,29-,30-,31-/m0/s1
Instrument: Orbitrap Elite
Instrument type: APCI-ITFT
Ms type: MS2
Ion mode: POSITIVE
Ionization: APCI
Collision energy: 35 CID
Column name: Acquity CSHC18
Retention time: 0.237 min
Base peak: 512.33670
Precursor m/z: 512.33670
Precursor type: [M+H]+
Precursor intensity: 2944119000
m/z	relative intensity
158.0968	2
255.2126	1
315.2328	1
374.2824	29
434.3041	762
435.3036	3
436.3	1
452.3182	55
494.3256	999
512.3057	1
