Mass spectrum: Raspberry ketone; LC-ESI-QTOF; MS2; CE: 15.00;  [M+Na]+
Name: Raspberry ketone
Class: NA
Formula: C10H12O2
Exact mass: 164.0837
SMILES: CC(=O)CCC1=CC=C(C=C1)O
InChI: InChI=1S/C10H12O2/c1-8(11)2-3-9-4-6-10(12)7-5-9/h4-7,12H,2-3H2,1H3
Instrument: Bruker MicrOTOF-Q
Instrument type: LC-ESI-QTOF
Ms type: MS2
Ion mode: POSITIVE
Ionization: ESI
Collision energy: 15.00
Column name: Acquity CSHC18
Retention time: NA
Base peak: 187.0730
Precursor m/z: 187.0730
Precursor type: [M+Na]+
m/z	relative intensity
107.0444	999
131.0501	95
135.9868	92
149.0548	280
