Mass spectrum: GLUCONOLACTONE; LC-ESI-QFT; MS2; CE: 30eV;  [M+H]+
Name: GLUCONOLACTONE
Class: NA
Formula: C6H10O6
Exact mass: 178.04774
SMILES: OC[C@H]1OC(=O)[C@H](O)[C@@H](O)[C@@H]1O
InChI: InChI=1S/C6H10O6/c7-1-2-3(8)4(9)5(10)6(11)12-2/h2-5,7-10H,1H2/t2-,3-,4+,5-/m1/s1
Instrument: Q-Exactive Orbitrap, Thermo Scientfic; Ultimate 3000 HPLC, Thermo Scientfic
Instrument type: LC-ESI-QFT
Ms type: MS2
Ion mode: POSITIVE
Ionization: ESI
Collision energy: 30eV
Column name: Acquity CSHC18
Retention time: 0.582 min
Base peak: 179.0550
Precursor m/z: 179.0550
Precursor type: [M+H]+
Precursor intensity: 110
m/z	relative intensity
51.0581	10
51.19	10
52.3065	14
54.8322	11
55.0187	305
57.0329	23
57.0343	682
57.0707	17
59.0499	91
61.0292	141
61.6956	13
63.3003	13
67.2644	12
69.0342	370
70.0658	16
70.516	12
71.0135	150
72.129	12
73.0291	777
75.9022	12
81.0342	35
82.1399	13
85.0267	23
85.0291	455
87.0447	189
87.8578	13
97.029	428
103.0396	150
103.2355	13
111.8706	18
113.0716	21
115.0394	662
121.1499	13
125.0237	352
127.1634	14
127.9803	64
133.0499	999
145.9906	27
155.9749	175
158.6106	15
161.081	111
179.0639	61
179.1068	61
