Mass spectrum: D-Galactonic acid; LC-ESI-QTOF; MS2; CE: -10, -35, -60V;  [M-H]-
Name: D-Galactonic acid
Class: NA
Formula: C6H12O7
Exact mass: 196.0583
SMILES: C(C(C(C(C(C(=O)O)O)O)O)O)O
InChI: InChI=1S/C6H12O7/c7-1-2(8)3(9)4(10)5(11)6(12)13/h2-5,7-11H,1H2,(H,12,13)
Instrument: TripleToF 5600; Sciex
Instrument type: LC-ESI-QTOF
Ms type: MS2
Ion mode: NEGATIVE
Ionization: ESI
Collision energy: -10, -35, -60V
Column name: Acquity CSHC18
Retention time: 2.443 min
Base peak: 195.0543
Precursor m/z: 195.0543
Precursor type: [M-H]-
Precursor intensity: 42330.38
m/z	relative intensity
71.0136	25
72.9947	15
129.0165	30
149.0413	38
159.0331	60
195.0519	999
