Mass spectrum: 18:0 SM (d18:1/18:0); ESI-TOF; MS2; CE: 0.6458333;  [M+H]+
Name: 18:0 SM (d18:1/18:0)
Class: NA
Formula: C41H83N2O6P
Exact mass: 730.59888
SMILES: [H]OC([H])(C([H])=C([H])C([H])([H])C([H])([H])C([H])([H])C([H])([H])C([H])([H])C([H])([H])C([H])([H])C([H])([H])C([H])([H])C([H])([H])C([H])([H])C([H])([H])C([H])([H])[H])C([H])(N([H])C(=O)C([H])([H])C([H])([H])C([H])([H])C([H])([H])C([H])([H])C([H])([H])C([H])([H])C([H])([H])C([H])([H])C([H])([H])C([H])([H])C([H])([H])C([H])([H])C([H])([H])C([H])([H])C([H])([H])C([H])([H])[H])C([H])([H])OP(=O)([O-])OC([H])([H])C([H])([H])[N+](C([H])([H])[H])(C([H])([H])[H])C([H])([H])[H]
InChI: InChI=1S/C41H83N2O6P/c1-6-8-10-12-14-16-18-20-21-23-25-27-29-31-33-35-41(45)42-39(38-49-50(46,47)48-37-36-43(3,4)5)40(44)34-32-30-28-26-24-22-19-17-15-13-11-9-7-2/h32,34,39-40,44H,6-31,33,35-38H2,1-5H3,(H-,42,45,46,47)
Instrument: waters xevo g2 TOF
Instrument type: ESI-TOF
Ms type: MS2
Ion mode: POSITIVE
Ionization: ESI
Collision energy: 0.6458333
Column name: Acquity CSHC18
Retention time: 11.147 min
Base peak: 731.60688
Precursor m/z: 731.60688
Precursor type: [M+H]+
m/z	relative intensity
86.0969	15
93.0705	6
104.1073	126
105.1109	5
162.9468	51
184.0732	999
185.0768	66
186.0774	6
214.9179	7
216.9849	54
222.0208	20
234.6319	8
237.9936	4
243.6366	11
264.269	55
265.2723	16
376.2738	49
376.7763	22
377.2775	5
384.2613	6
384.7616	2
385.2799	88
385.7814	23
386.2826	4
403.1472	8
427.2564	7
427.7578	3
435.2417	2
446.2361	7
462.2033	3
530.5286	6
547.2946	3
548.5389	18
549.5442	4
553.3713	3
568.4747	8
570.5208	10
588.3837	6
619.3343	6
642.4826	11
642.9837	12
643.4827	3
694.5135	31
695.5162	13
696.5188	3
713.5945	10
721.0376	12
721.5426	13
731.605	111
732.6079	100
