Mass spectrum: lactucin; LC-ESI-ITFT; MS2; CE: 0.3;  [M-H]-
Name: lactucin
Class: sesquiterpene lactones
Formula: C15H16O5
Exact mass: 276.0998
SMILES: CC1=C2C(C3C(C(C1)O)C(=C)C(=O)O3)C(=CC2=O)CO
InChI: InChI=1S/C15H16O5/c1-6-3-9(17)12-7(2)15(19)20-14(12)13-8(5-16)4-10(18)11(6)13/h4,9,12-14,16-17H,2-3,5H2,1H3
Instrument: LTQ-Orbitrap XL hybrid mass spectrometer (Thermo Scientific)
Instrument type: LC-ESI-ITFT
Ms type: MS2
Ion mode: NEGATIVE
Ionization: ESI
Collision energy: 0.3
Column name: Acquity CSHC18
Retention time: 6.591 min
Base peak: 275.0925
Precursor m/z: 275.0925
Precursor type: [M-H]-
Precursor intensity: 7553688
m/z	relative intensity
66.5836	5
67.8672	1
69.4174	1
71.6243	1
72.3625	1
72.8016	1
75.3829	1
76.0645	1
81.8857	1
84.4542	1
85.4307	1
90.5725	1
103.1376	2
122.0912	1
161.1534	3
169.1027	2
171.0819	1
183.082	5
185.0976	6
187.0768	2
189.0924	3
195.082	43
196.0898	3
198.0691	3
201.0925	11
203.1079	2
211.7457	3
212.1938	3
213.0926	396
214.0955	2
214.4518	1
231.103	34
239.0717	4
242.0587	6
245.0823	5
252.9502	1
253.5348	3
254.1206	4
254.3548	1
254.7096	2
254.7227	1
255.2985	8
255.8919	8
255.903	1
256.0096	1
256.1279	4
256.248	2
256.4856	2
256.8442	2
257.0479	3
257.0635	6
257.0823	999
257.0978	6
257.6814	4
257.9203	1
258.0415	1
258.0856	31
258.2697	1
258.2812	3
258.8844	4
260.096	1
260.7047	1
275.0845	1
275.0926	14
