Mass spectrum: Epicatechin; ESI-TOF; MS2; CE: 6.0000000;  [M+H]+
Name: Epicatechin
Class: NA
Formula: C15H14O6
Exact mass: 290.07904
SMILES: OC1CC2=C(O)C=C(O)C=C2OC1C1=CC(O)=C(O)C=C1
InChI: InChI=1S/C15H14O6/c16-8-4-11(18)9-6-13(20)15(21-14(9)5-8)7-1-2-10(17)12(19)3-7/h1-5,13,15-20H,6H2
Instrument: waters xevo g2 TOF
Instrument type: ESI-TOF
Ms type: MS2
Ion mode: POSITIVE
Ionization: ESI
Collision energy: 6.0000000
Column name: Acquity CSHC18
Retention time: 1.951 min
Base peak: 291.08704
Precursor m/z: 291.08704
Precursor type: [M+H]+
m/z	relative intensity
96.9616	14
107.0494	5
119.0498	4
123.0447	9
124.0483	63
127.0395	12
135.0444	7
137.0419	6
139.0558	732
140.043	122
147.0446	132
148.0479	11
149.06	32
151.0393	142
153.0379	29
163.0393	70
165.0552	450
166.059	42
167.034	3
169.0497	65
170.0543	2
179.0708	3
181.0499	25
182.191	6
185.5346	2
186.2207	2
187.0391	4
189.055	1
191.0367	5
203.0713	2
205.0676	3
207.0658	53
208.0684	5
209.0694	1
225.0555	2
231.0943	3
233.0795	4
243.0654	9
245.0638	1
247.0604	3
249.0762	37
250.0796	4
257.0991	101
258.1025	3
261.1317	6
271.0602	37
272.0643	5
273.0758	128
274.0794	8
275.0926	127
289.0717	630
290.0745	32
291.161	999
292.09	348
