Mass spectrum: U-44069; ESI-TOF; MS2; CE: 6.0000000;  [M+H]+
Name: U-44069
Class: NA
Formula: C21H34O4
Exact mass: 350.24571
SMILES: CCCCC[C@H](O)/C=C/[C@H]1C(CO2)CC2[C@@H]1C/C=C\CCCC(O)=O
InChI: InChI=1S/C21H34O4/c1-2-3-6-9-17(22)12-13-18-16-14-20(25-15-16)19(18)10-7-4-5-8-11-21(23)24/h4,7,12-13,16-20,22H,2-3,5-6,8-11,14-15H2,1H3,(H,23,24)/b7-4-,13-12+/t16?,17-,18-,19+,20?/m0/s1
Instrument: waters xevo g2 TOF
Instrument type: ESI-TOF
Ms type: MS2
Ion mode: POSITIVE
Ionization: ESI
Collision energy: 6.0000000
Column name: Acquity CSHC18
Retention time: 4.248 min
Base peak: 351.25371
Precursor m/z: 351.25371
Precursor type: [M+H]+
m/z	relative intensity
93.0699	3
105.0694	3
119.087	6
129.9548	1
131.0858	8
133.1018	6
145.1016	9
149.1319	1
159.1192	4
161.1337	4
163.1484	3
164.9722	3
173.1323	4
177.0884	2
185.1318	5
187.1481	23
189.1637	13
190.1686	1
193.1349	1
199.1135	25
201.1455	26
203.18	7
205.1215	9
207.1353	12
209.1346	2
213.1264	25
214.1316	2
215.1795	20
217.1937	2
218.1277	2
219.1378	19
220.1464	2
221.1535	10
223.1481	3
231.1386	23
245.1522	15
253.1941	4
255.2106	7
259.1723	5
265.2115	6
267.2098	12
269.2229	16
270.1642	2
273.1821	3
279.2109	35
281.1621	2
285.222	60
286.2248	11
287.239	11
288.2427	2
289.2194	7
297.2218	178
298.2251	37
299.2277	3
303.2325	271
304.2346	46
305.2451	21
306.2417	1
315.2319	999
316.236	213
317.2382	25
333.2443	801
334.2474	181
335.2518	11
