Mass spectrum: L-Tyrosine; LC-ESI-ITFT; MS2; CE: 60;  [M+H]+
Name: L-Tyrosine
Class: Organic acids and derivatives; Carboxylic acids and derivatives; Amino acids, peptides, and analogues
Formula: C9H11NO3
Exact mass: 181.07389
SMILES: N[C@@H](CC1=CC=C(O)C=C1)C(O)=O
InChI: InChI=1S/C9H11NO3/c10-8(9(12)13)5-6-1-3-7(11)4-2-6/h1-4,8,11H,5,10H2,(H,12,13)/t8-/m0/s1
Instrument: Thermo Scientific Q-Exactive Focus
Instrument type: LC-ESI-ITFT
Ms type: MS2
Ion mode: POSITIVE
Ionization: ESI
Collision energy: 60
Column name: Acquity CSHC18
Retention time: 2.014 min
Base peak: 182.08118
Precursor m/z: 182.08118
Precursor type: [M+H]+
m/z	relative intensity
51.0235	424
53.0392	214
57.9353	109
58.9539	180
65.0391	999
77.039	163
91.0546	539
95.0494	435
105.045	87
107.0494	148
