Mass spectrum: Citraconic acid; LC-ESI-ITFT; MS2; CE: 10;  [M-H]-
Name: Citraconic acid
Class: Lipids and lipid-like molecules; Fatty Acyls; Fatty acids and conjugates
Formula: C5H6O4
Exact mass: 130.02661
SMILES: C\C(=C\C(O)=O)C(O)=O
InChI: InChI=1S/C5H6O4/c1-3(5(8)9)2-4(6)7/h2H,1H3,(H,6,7)(H,8,9)/b3-2-
Instrument: Thermo Scientific Q-Exactive Focus
Instrument type: LC-ESI-ITFT
Ms type: MS2
Ion mode: NEGATIVE
Ionization: ESI
Collision energy: 10
Column name: Acquity CSHC18
Retention time: 0.360 min
Base peak: 129.01933
Precursor m/z: 129.01933
Precursor type: [M-H]-
m/z	relative intensity
64.835	2
71.6437	2
81.2866	2
85.0283	999
96.9531	2
102.5173	2
115.8129	2
129.0182	106
138.3402	3
143.313	2
