Mass spectrum: Hypotaurine; LC-ESI-ITFT; MS2; CE: 20;  [M-H]-
Name: Hypotaurine
Class: Organic acids and derivatives; Sulfinic acids and derivatives; Sulfinic acids
Formula: C2H7NO2S
Exact mass: 109.01975
SMILES: NCCS(O)=O
InChI: InChI=1S/C2H7NO2S/c3-1-2-6(4)5/h1-3H2,(H,4,5)
Instrument: Thermo Scientific Q-Exactive Focus
Instrument type: LC-ESI-ITFT
Ms type: MS2
Ion mode: NEGATIVE
Ionization: ESI
Collision energy: 20
Column name: Acquity CSHC18
Retention time: 0.643 min
Base peak: 108.01247
Precursor m/z: 108.01247
Precursor type: [M-H]-
m/z	relative intensity
63.9476	1
63.9612	999
63.9744	1
64.969	35
98.1685	1
