Mass spectrum: isorhamnetin-3-O-glucoside; LC-ESI-QTOF; MS2; CE: 20-40eV;  [M+H]+
Name: isorhamnetin-3-O-glucoside
Class: flavonoid
Formula: C22H22O12
Exact mass: 478.1111
SMILES: COC=1C=C(C=CC1O)C2=C(C(C3=C(C=C(C=C3O2)O)O)=O)OC4(C(C(C(C(CO)(O4)[H])(O)[H])(O)[H])(O)[H])[H]
InChI: InChI=1S/C22H22O12/c1-31-12-4-8(2-3-10(12)25)20-21(17(28)15-11(26)5-9(24)6-13(15)32-20)34-22-19(30)18(29)16(27)14(7-23)33-22/h2-6,14,16,18-19,22-27,29-30H,7H2,1H3
Instrument: Impact II, Bruker; Dionex 3000, Thermo Scientific
Instrument type: LC-ESI-QTOF
Ms type: MS2
Ion mode: POSITIVE
Ionization: ESI
Collision energy: 20-40eV
Column name: Acquity CSHC18
Retention time: 5.568 min
Base peak: 479.1172
Precursor m/z: 479.1172
Precursor type: [M+H]+
Precursor intensity: 2867.12
m/z	relative intensity
97.0282	61
107.0467	23
109.0282	22
127.0378	38
257.0389	29
272.0642	31
274.0438	27
302.0419	125
317.0652	999
318.0706	145
319.0737	76
355.059	29
