Mass spectrum: Diaminopimelic acid; ESI-TOF; MS2; CE: 6.0000000;  [M+H]+
Name: Diaminopimelic acid
Class: NA
Formula: C7H14N2O4
Exact mass: 190.09536
SMILES: NC(CCCC(N)C(O)=O)C(O)=O
InChI: InChI=1S/C7H14N2O4/c8-4(6(10)11)2-1-3-5(9)7(12)13/h4-5H,1-3,8-9H2,(H,10,11)(H,12,13)
Instrument: waters xevo g2 TOF
Instrument type: ESI-TOF
Ms type: MS2
Ion mode: POSITIVE
Ionization: ESI
Collision energy: 6.0000000
Column name: Acquity CSHC18
Retention time: 0.512 min
Base peak: 191.10336
Precursor m/z: 191.10336
Precursor type: [M+H]+
m/z	relative intensity
82.0659	46
83.0701	1
95.9749	1
102.1278	9
114.056	12
114.9711	18
124.9563	2
128.0726	538
129.0879	122
138.9918	3
145.0577	14
154.0192	18
155.0816	6
156.0662	40
157.0705	2
159.0769	17
160.9893	5
162.9913	3
171.114	6
180.9912	2
186.0438	1
191.1031	999
192.1381	48
