Mass spectrum: N-Nonanoyl-L-homoserine lactone; LC-ESI-ITFT; MS2; CE: 60;  [M+H]+
Name: N-Nonanoyl-L-homoserine lactone
Class: NA
Formula: C13H23NO3
Exact mass: 241.16779
SMILES: CCCCCCCCC(=O)N[C@H]1CCOC1=O
InChI: InChI=1S/C13H23NO3/c1-2-3-4-5-6-7-8-12(15)14-11-9-10-17-13(11)16/h11H,2-10H2,1H3,(H,14,15)/t11-/m0/s1
Instrument: Thermo Scientific Q-Exactive Focus
Instrument type: LC-ESI-ITFT
Ms type: MS2
Ion mode: POSITIVE
Ionization: ESI
Collision energy: 60
Column name: Acquity CSHC18
Retention time: 2.018 min
Base peak: 242.17506
Precursor m/z: 242.17506
Precursor type: [M+H]+
m/z	relative intensity
53.0028	333
53.0391	97
55.0548	197
56.05	999
57.0704	717
67.0547	299
74.024	312
79.0546	242
81.0703	316
199.1105	65
