Mass spectrum: Methionine; LC-ESI-QTOF; MS2; CE: 10;  [M+H]+
Name: Methionine
Class: NA
Formula: C5H11NO2S
Exact mass: 149.05105
SMILES: CSCCC(C(=O)O)N
InChI: InChI=1S/C5H11NO2S/c1-9-3-2-4(6)5(7)8/h4H,2-3,6H2,1H3,(H,7,8)
Instrument: impact II
Instrument type: LC-ESI-QTOF
Ms type: MS2
Ion mode: POSITIVE
Ionization: ESI
Collision energy: 10
Column name: Acquity CSHC18
Retention time: 1.788 min
Base peak: 150.05820
Precursor m/z: 150.05820
Precursor type: [M+H]+
m/z	relative intensity
56.0501	909
61.0114	267
102.0551	223
104.0529	999
133.0317	918
150.0582	673
