Mass spectrum: PEP; LC-ESI-QTOF; MS2; CE: 15 / 50;  [M-H]-
Name: PEP
Class: NA
Formula: C3H5O6P
Exact mass: 167.9824
SMILES: C=C(C(=O)O)OP(=O)(O)O
InChI: InChI=1S/C3H5O6P/c1-2(3(4)5)9-10(6,7)8/h1H2,(H,4,5)(H2,6,7,8)
Instrument: impact II
Instrument type: LC-ESI-QTOF
Ms type: MS2
Ion mode: NEGATIVE
Ionization: ESI
Collision energy: 15 / 50
Column name: Acquity CSHC18
Retention time: 0.690 min
Base peak: 166.9750
Precursor m/z: 166.9750
Precursor type: [M-H]-
m/z	relative intensity
62.965	3
78.9407	1
78.9474	1
78.9594	999
78.9703	57
78.9999	4
79.0162	4
79.0235	4
79.0308	7
79.0451	2
79.071	1
79.0807	1
79.1313	1
79.1408	1
79.184	1
79.9628	2
96.9695	3
148.9642	6
166.9749	2
