Mass spectrum: D-Arabitol; ESI-TOF; MS2; CE: 0.6458333;  [M+H]+
Name: D-Arabitol
Class: NA
Formula: C5H12O5
Exact mass: 152.06847
SMILES: OCC(O)C(O)C(O)CO
InChI: InChI=1S/C5H12O5/c6-1-3(8)5(10)4(9)2-7/h3-10H,1-2H2
Instrument: waters xevo g2 TOF
Instrument type: ESI-TOF
Ms type: MS2
Ion mode: POSITIVE
Ionization: ESI
Collision energy: 0.6458333
Column name: Acquity CSHC18
Retention time: 0.560 min
Base peak: 153.07647
Precursor m/z: 153.07647
Precursor type: [M+H]+
m/z	relative intensity
69.0347	187
72.9836	18
74.004	13
83.0082	42
85.9744	32
87.028	40
89.9406	80
95.0076	86
95.9944	85
96.9618	121
97.9691	310
99.0102	345
100.0479	1
100.9445	15
102.054	41
104.0132	57
105.0211	281
108.0153	36
110.0128	268
111.9611	161
112.9927	123
113.9952	270
114.9599	401
116.5287	1
117.038	87
117.997	1
119.0186	67
124.5157	1
124.9563	57
126.0264	206
127.9561	82
128.9637	235
130.0081	5
131.9889	416
135.0655	1
136.0688	1
137.9883	2
139.9852	634
140.9966	63
141.5321	18
141.971	65
143.0012	54
144.959	96
145.9985	92
149.0181	1
150.0184	1
150.9958	3
153.0243	5
155.9733	16
158.0251	329
159.0537	148
160.0878	1
160.9637	49
163.0454	45
164.0614	1
164.5633	1
169.9672	245
171.0024	71
172.0502	96
172.5521	1
173.0146	1
173.5518	1
174.0127	9
174.9987	69
175.9775	99
177.0634	1
179.5375	1
180.0364	1
180.5379	1
181.0098	4
181.5384	1
182.0348	1
182.5351	1
184.0083	46
186.9575	1
187.9771	999
188.9829	113
195.0452	56
205.9893	56
206.9958	240
207.4978	1
208.9945	59
214.9992	9
217.1049	1
219.0437	16
222.0046	1
223.9983	163
225.0041	20
227.509	1
232.0039	1
237.029	34
238.0144	72
247.0148	1
250.0139	31
251.0726	18
251.9935	1
253	1
255.0029	1
262.014	357
263.0185	1
266.0093	1
267.016	59
283.9088	13
284.9141	21
288.9905	21
292.0248	1
293.0303	1
302.1974	1
309.4865	1
309.9895	1
314.9266	20
316.0411	1
316.9417	72
320.9374	1
329.1031	167
330.1063	20
343.0931	38
349.0593	1
354.0628	1
355.0666	1
356.0613	1
357.0704	10
358.0563	80
359.0626	156
360.066	16
361.0646	39
363.0611	1
373.94	1
374.9443	11
382.0117	1
406.9676	1
408.0008	22
422.97	1
439.9668	1
563.0388	1
