Mass spectrum: SEBACATE; LC-ESI-QFT; MS2; CE: 30eV;  [M-H]-
Name: SEBACATE
Class: NA
Formula: C10H18O4
Exact mass: 202.12051
SMILES: C(CCCCC(=O)O)CCCC(=O)O
InChI: InChI=1S/C10H18O4/c11-9(12)7-5-3-1-2-4-6-8-10(13)14/h1-8H2,(H,11,12)(H,13,14)
Instrument: Q-Exactive Orbitrap, Thermo Scientfic; Ultimate 3000 HPLC, Thermo Scientfic
Instrument type: LC-ESI-QFT
Ms type: MS2
Ion mode: NEGATIVE
Ionization: ESI
Collision energy: 30eV
Column name: Acquity CSHC18
Retention time: 8.144 min
Base peak: 201.1132
Precursor m/z: 201.1132
Precursor type: [M-H]-
Precursor intensity: 163
m/z	relative intensity
52.3355	24
52.8502	27
52.8519	34
52.8532	26
52.8543	25
55.3653	23
55.5943	26
56.3449	26
56.8619	25
57.0331	345
58.0365	25
58.9599	25
61.4161	25
62.3708	25
63.6054	26
66.384	26
67.0506	28
71.0488	28
73.9391	27
75.9838	28
98.5308	33
111.08	317
112.929	34
115.7148	29
137.0961	118
140.1148	844
140.5472	35
157.1223	198
164.835	38
164.9161	34
182.6663	32
184.1052	659
197.9921	27
202.1158	999
