Mass spectrum: DOPAMINE; LC-ESI-QTOF; MS2; CE: 20;  [M+H]+
Name: DOPAMINE
Class: NA
Formula: C8H11NO2
Exact mass: 153.0790
SMILES: NCCC1=CC=C(O)C(O)=C1 
InChI: InChI=1S/C8H11NO2/c9-4-3-6-1-2-7(10)8(11)5-6/h1-2,5,10-11H,3-4,9H2
Instrument: Agilent 6530Â Q-TOF LC/MS
Instrument type: LC-ESI-QTOF
Ms type: MS2
Ion mode: POSITIVE
Ionization: ESI
Collision energy: 20
Column name: NA
Retention time: 0.200 min
Base peak: 154.08515
Precursor m/z: 154.08515
Precursor type: [M+H]+
Precursor intensity: 129.5
m/z	relative intensity
65.0389	19
91.0537	150
109.0616	187
119.0492	195
137.0582	999
