Mass spectrum: L-Citrulline; LC-ESI-QTOF; MS2; CE: 15;  [M-H]-
Name: L-Citrulline
Class: NA
Formula: C6H13N3O3
Exact mass: 175.0957
SMILES: C(CC(C(=O)O)N)CNC(=O)N
InChI: InChI=1S/C6H13N3O3/c7-4(5(10)11)2-1-3-9-6(8)12/h4H,1-3,7H2,(H,10,11)(H3,8,9,12)
Instrument: Bruker MicrOTOF-Q
Instrument type: LC-ESI-QTOF
Ms type: MS2
Ion mode: NEGATIVE
Ionization: ESI
Collision energy: 15
Column name: Acquity CSHC18
Retention time: NA
Base peak: 174.0884
Precursor m/z: 174.0884
Precursor type: [M-H]-
m/z	relative intensity
47.2409	53
50.9992	65
57.8363	47
60.6326	53
76.5046	47
98.7568	47
118.2056	70
124.5602	39
130.9951	44
131.0831	999
131.1862	44
132.083	58
134.6491	37
150.6335	55
162.8561	37
193.5489	65
229.8135	42
273.4673	37
286.3289	35
289.3877	51
293.3201	56
328.1816	40
341.0781	69
356.3819	37
377.7891	44
404.6661	60
419.5507	55
427.9778	35
436.8374	53
442.4853	53
448.7197	51
463.7211	60
498.1447	47
503.8588	56
512.5039	63
528.2974	39
539.8	76
541.4355	37
572.7232	78
577.9749	39
647.5144	37
685.8635	42
763.0848	37
841.2368	58
985.8524	74
989.3389	37
