Mass spectrum: Quercetin 3-glucoside; LC-ESI-QFT; MS2; CE: NCE_15_30_68;  [M-H]-
Name: Quercetin 3-glucoside
Class: NA
Formula: C21H20O12
Exact mass: 464.0955
SMILES: C1=CC(=C(C=C1C2=C(C(=O)C3=C(C=C(C=C3O2)O)O)OC4C(C(C(C(O4)CO)O)O)O)O)O
InChI: InChI=1S/C21H20O12/c22-6-13-15(27)17(29)18(30)21(32-13)33-20-16(28)14-11(26)4-8(23)5-12(14)31-19(20)7-1-2-9(24)10(25)3-7/h1-5,13,15,17-18,21-27,29-30H,6H2
Instrument: Thermo_Qexactive_Plus
Instrument type: LC-ESI-QFT
Ms type: MS2
Ion mode: NEGATIVE
Ionization: ESI
Collision energy: NCE_15_30_68
Column name: Acquity CSHC18
Retention time: 4.645 min
Base peak: 463.0889
Precursor m/z: 463.0889
Precursor type: [M-H]-
Precursor intensity: 565573500
m/z	relative intensity
55.1038	7
99.3709	7
109.0286	7
120.4374	7
125.0237	7
151.0027	7
152.0058	7
163.0022	8
172.9704	8
178.9978	8
198.6071	8
211.0411	9
211.1152	9
218.919	9
229.0507	9
243.0306	10
245.0465	11
254.0197	12
255.0291	13
256.0343	14
264.4	14
271.026	16
272.0303	21
273.0392	33
283.0255	60
295.3478	77
297.6773	78
299.0214	84
300.0268	121
301.0351	550
302.038	676
463.0903	999
