Mass spectrum: SALICYLAMIDE; LC-ESI-QTOF; MS2; CE: 10;  [M+H]+
Name: SALICYLAMIDE
Class: NA
Formula: C7H7NO2
Exact mass: 137.04768
SMILES: NC(=O)C1=CC=CC=C1O
InChI: InChI=1S/C7H7NO2/c8-7(10)5-3-1-2-4-6(5)9/h1-4,9H,(H2,8,10)
Instrument: Agilent 6530Â Q-TOF LC/MS
Instrument type: LC-ESI-QTOF
Ms type: MS2
Ion mode: POSITIVE
Ionization: ESI
Collision energy: 10
Column name: NA
Retention time: 0.200 min
Base peak: 138.05751
Precursor m/z: 138.05751
Precursor type: [M+H]+
Precursor intensity: 190.5
m/z	relative intensity
44.0187	33
53.0085	33
65.0831	35
76.6427	42
77.0522	49
92.0511	53
93.0725	56
94.0412	59
95.0582	70
102.0466	174
120.0534	195
120.8333	515
121.5891	874
122.312	950
138.4035	999
