Mass spectrum: Kaempferol-3-O-rutinoside; LC-ESI-QTOF; MS2; CE: 50eV;  [M-H]-
Name: Kaempferol-3-O-rutinoside
Class: Flavonol
Formula: C27H30O15
Exact mass: 594.1585
SMILES: CC1C(C(C(C(O1)OCC2C(C(C(C(O2)OC3=C(OC4=CC(=CC(=C4C3=O)O)O)C5=CC=C(C=C5)O)O)O)O)O)O)O
InChI: InChI=1S/C27H30O15/c1-9-17(31)20(34)22(36)26(39-9)38-8-15-18(32)21(35)23(37)27(41-15)42-25-19(33)16-13(30)6-12(29)7-14(16)40-24(25)10-2-4-11(28)5-3-10/h2-7,9,15,17-18,20-23,26-32,34-37H,8H2,1H3
Instrument: TIMS-TOF Pro, Bruker Daltonik; Elute UHPLC System, Bruker Daltonik
Instrument type: LC-ESI-QTOF
Ms type: MS2
Ion mode: NEGATIVE
Ionization: ESI
Collision energy: 50eV
Column name: Acquity CSHC18
Retention time: 5.326 min
Base peak: 593.1465
Precursor m/z: 593.1465
Precursor type: [M-H]-
Precursor intensity: 218577.4
m/z	relative intensity
65.8426	1
143.3341	1
145.0665	1
151.0037	3
154.4331	1
163.0058	1
213.0547	1
227.0302	4
229.0422	2
255.0298	4
256.0355	1
275.3805	1
280.0998	1
284.0295	20
285.0375	46
286.042	4
286.4875	1
287.0429	1
287.7566	1
288.1419	1
288.6024	1
289.4495	1
289.8708	1
292.8933	1
294.5552	1
298.3586	1
300.8586	1
306.3615	1
308.3268	1
311.5162	1
316.3268	1
323.6061	1
327.0501	1
521.031	1
592.6436	1
592.7703	1
592.9046	1
593.0467	1
593.1466	999
593.3078	1
593.3885	2
593.4634	2
593.5959	1
