Mass spectrum: L-Tryptophan; LC-ESI-ITFT; MS2; CE: 100;  [M+H]+
Name: L-Tryptophan
Class: Organoheterocyclic compounds; Indoles and derivatives; Indolyl carboxylic acids and derivatives
Formula: C11H12N2O2
Exact mass: 204.08988
SMILES: N[C@@H](CC1=CNC2=C1C=CC=C2)C(O)=O
InChI: InChI=1S/C11H12N2O2/c12-9(11(14)15)5-7-6-13-10-4-2-1-3-8(7)10/h1-4,6,9,13H,5,12H2,(H,14,15)/t9-/m0/s1
Instrument: Thermo Scientific Q-Exactive Focus
Instrument type: LC-ESI-ITFT
Ms type: MS2
Ion mode: POSITIVE
Ionization: ESI
Collision energy: 100
Column name: Acquity CSHC18
Retention time: 2.573 min
Base peak: 205.09715
Precursor m/z: 205.09715
Precursor type: [M+H]+
m/z	relative intensity
50.0157	218
51.0236	583
53.0028	122
62.0157	282
63.0235	982
65.0391	324
74.0156	153
75.0234	159
89.039	999
115.0545	167
