Mass spectrum: L-TRYPTOPHANAMIDE; LC-ESI-QTOF; MS2; CE: 40;  [M+H]+
Name: L-TRYPTOPHANAMIDE
Class: NA
Formula: C11H13N3O
Exact mass: 203.10586
SMILES: NC(CC1=CNC2=CC=CC=C12)C(N)=O
InChI: InChI=1S/C11H13N3O/c12-9(11(13)15)5-7-6-14-10-4-2-1-3-8(7)10/h1-4,6,9,14H,5,12H2,(H2,13,15)
Instrument: Agilent 6530Â Q-TOF LC/MS
Instrument type: LC-ESI-QTOF
Ms type: MS2
Ion mode: POSITIVE
Ionization: ESI
Collision energy: 40
Column name: NA
Retention time: 0.200 min
Base peak: 204.11549
Precursor m/z: 204.11549
Precursor type: [M+H]+
Precursor intensity: 103.5
m/z	relative intensity
41.0356	26
42.0384	26
44.0249	27
51.0295	27
54.0366	29
63.0294	31
64.023	35
65.0369	36
66.0379	36
73.0395	41
77.0658	43
77.2898	44
79.0633	48
81.0529	49
86.0181	50
89.0637	53
90.0698	55
91.0843	58
92.0522	59
93.0668	59
101.0458	62
102.0594	69
103.1069	70
104.052	70
105.0893	85
106.0698	88
113.0332	96
114.05	98
115.1958	131
116.0818	141
117.2746	155
118.0972	166
127.0778	175
128.0649	196
129.0624	221
130.1259	223
130.3777	251
131.0887	256
132.1176	259
132.4406	314
140.073	388
141.0685	390
142.0982	436
143.1043	535
144.1001	545
145.0821	710
157.0871	999
158.0944	26
159.1084	26
