Mass spectrum: N-Methyl-D-aspartic acid; LC-ESI-ITFT; MS2; CE: 60;  [M-H]-
Name: N-Methyl-D-aspartic acid
Class: Organic acids and derivatives; Carboxylic acids and derivatives; Amino acids, peptides, and analogues
Formula: C5H9NO4
Exact mass: 147.05316
SMILES: CN[C@H](CC(O)=O)C(O)=O
InChI: InChI=1S/C5H9NO4/c1-6-3(5(9)10)2-4(7)8/h3,6H,2H2,1H3,(H,7,8)(H,9,10)/t3-/m1/s1
Instrument: Thermo Scientific Q-Exactive Focus
Instrument type: LC-ESI-ITFT
Ms type: MS2
Ion mode: NEGATIVE
Ionization: ESI
Collision energy: 60
Column name: Acquity CSHC18
Retention time: 2.031 min
Base peak: 146.04588
Precursor m/z: 146.04588
Precursor type: [M-H]-
m/z	relative intensity
79.3895	902
84.041	876
84.0515	924
104.3894	921
106.951	866
107.2202	999
118.9251	873
119.3122	901
126.9108	893
129.8325	861
