Mass spectrum: Tyramine; LC-ESI-QTOF; MS2; CE: 15.00;  [M+H]+
Name: Tyramine
Class: NA
Formula: C8H11NO
Exact mass: 137.0841
SMILES: C1=CC(=CC=C1CCN)O
InChI: InChI=1S/C8H11NO/c9-6-5-7-1-3-8(10)4-2-7/h1-4,10H,5-6,9H2
Instrument: Bruker MicrOTOF-Q
Instrument type: LC-ESI-QTOF
Ms type: MS2
Ion mode: POSITIVE
Ionization: ESI
Collision energy: 15.00
Column name: Acquity CSHC18
Retention time: NA
Base peak: 138.0913
Precursor m/z: 138.0913
Precursor type: [M+H]+
m/z	relative intensity
102.0437	1
103.0528	9
119.0494	3
120.0536	1
121.0651	999
121.274	1
121.5187	1
122.0681	96
123.0693	1
124.4853	1
