Mass spectrum: N-oleoylglycine; ESI-TOF; MS2; CE: 6.0000000;  [M+H]+
Name: N-oleoylglycine
Class: NA
Formula: C20H37NO3
Exact mass: 339.27734
SMILES: CCCCCCCCC=CCCCCCCCC(=O)NCC(=O)O
InChI: InChI=1S/C20H37NO3/c1-2-3-4-5-6-7-8-9-10-11-12-13-14-15-16-17-19(22)21-18-20(23)24/h9-10H,2-8,11-18H2,1H3,(H,21,22)(H,23,24)
Instrument: waters xevo g2 TOF
Instrument type: ESI-TOF
Ms type: MS2
Ion mode: POSITIVE
Ionization: ESI
Collision energy: 6.0000000
Column name: Acquity CSHC18
Retention time: 8.201 min
Base peak: 340.28534
Precursor m/z: 340.28534
Precursor type: [M+H]+
m/z	relative intensity
109.1022	2
113.9866	16
121.1022	5
123.1172	2
135.1171	5
163.1488	3
189.6207	16
190.1219	5
247.2425	42
248.2458	7
265.2534	161
266.181	19
294.2097	5
308.1534	8
322.2218	9
336.1843	3
340.2854	999
341.2887	239
