Mass spectrum: Zosimin; LC-ESI-ITFT; MS2; CE: 45eV;  [M+H]+
Name: Zosimin
Class: coumarin
Formula: C19H20O5
Exact mass: 328.1311
SMILES: CC=C(C)C(=O)OC(C)(C)C1CC2=C(O1)C=CC3=C2OC(=O)C=C3
InChI: InChI=1S/C19H20O5/c1-5-11(2)18(21)24-19(3,4)15-10-13-14(22-15)8-6-12-7-9-16(20)23-17(12)13/h5-9,15H,10H2,1-4H3
Instrument: LTQ Orbitrap XL, Thermo Scientfic; Dionex Ultimate 300
Instrument type: LC-ESI-ITFT
Ms type: MS2
Ion mode: POSITIVE
Ionization: ESI
Collision energy: 45eV
Column name: Alltima C18
Retention time: 25.88 min
Base peak: 329.1377
Precursor m/z: 329.1377
Precursor type: [M+H]+
m/z	relative intensity
229.0256	999
