Mass spectrum: N-ACETYLASPARTATE; LC-ESI-QTOF; MS2; CE: 40;  [M-H]-
Name: N-ACETYLASPARTATE
Class: NA
Formula: C6H9NO5
Exact mass: 175.04807
SMILES: CC(=O)N[C@@H](CC(O)=O)C(O)=O
InChI: InChI=1S/C6H9NO5/c1-3(8)7-4(6(11)12)2-5(9)10/h4H,2H2,1H3,(H,7,8)(H,9,10)(H,11,12)/t4-/m0/s1
Instrument: Agilent 6530Â Q-TOF LC/MS
Instrument type: LC-ESI-QTOF
Ms type: MS2
Ion mode: NEGATIVE
Ionization: ESI
Collision energy: 40
Column name: NA
Retention time: 0.200 min
Base peak: 174.03699
Precursor m/z: 174.03699
Precursor type: [M-H]-
Precursor intensity: 160
m/z	relative intensity
42.0159	185
58.04	458
88.0413	999
