Mass spectrum: Tafluprost (free acid); ESI-TOF; MS2; CE: 0.6458333;  [M+H]+
Name: Tafluprost (free acid)
Class: NA
Formula: C22H28F2O5
Exact mass: 410.19048
SMILES: OC1CC(O)C(\C=C\C(F)(F)COC2=CC=CC=C2)C1C\C=C/CCCC(O)=O
InChI: InChI=1S/C22H28F2O5/c23-22(24,15-29-16-8-4-3-5-9-16)13-12-18-17(19(25)14-20(18)26)10-6-1-2-7-11-21(27)28/h1,3-6,8-9,12-13,17-20,25-26H,2,7,10-11,14-15H2,(H,27,28)/b6-1-,13-12+
Instrument: waters xevo g2 TOF
Instrument type: ESI-TOF
Ms type: MS2
Ion mode: POSITIVE
Ionization: ESI
Collision energy: 0.6458333
Column name: Acquity CSHC18
Retention time: 3.655 min
Base peak: 411.19848
Precursor m/z: 411.19848
Precursor type: [M+H]+
m/z	relative intensity
93.07	14
95.0497	21
101.061	9
103.0557	16
107.0494	62
109.0469	33
111.0463	16
115.0562	29
117.0716	80
119.0862	24
127.0552	12
128.0639	31
129.0717	116
130.0785	11
131.0511	76
132.0529	7
133.0654	63
135.0615	20
143.087	82
144.0916	6
145.0655	44
146.0593	14
147.0615	44
148.0679	12
149.0753	33
153.07	43
154.0766	23
155.0869	103
157.1001	48
161.0846	33
165.0697	59
166.0778	55
168.0914	18
169.0753	68
171.1192	29
172.0866	7
175.1012	29
178.0788	10
179.0861	53
181.1023	147
187.1021	17
193.063	66
195.1107	39
196.121	13
197.0684	5
199.1105	61
200.1149	6
201.1078	42
205.1111	32
207.0998	64
208.088	18
213.1291	17
217.1001	13
219.0592	15
221.0953	35
223.1113	55
225.1166	22
226.1242	7
233.094	25
235.1117	14
241.122	56
243.1186	56
245.11	7
253.1154	3
260.136	9
261.128	55
271.0653	41
277.1442	17
279.1364	8
291.0718	29
335.1634	80
336.1674	8
337.159	10
352.0754	31
353.1738	13
355.171	16
363.0673	19
369.1432	12
380.0781	15
381.0782	57
382.0819	9
385.1167	70
393.1774	38
397.2019	24
400.0767	15
401.0841	77
402.087	14
407.09	13
413.1745	999
