Mass spectrum: Hydroxytyrosol; LC-ESI-QFT; MS2; CE: NCE_15_30_77;  [M-H]-
Name: Hydroxytyrosol
Class: NA
Formula: C8H10O3
Exact mass: 154.0630
SMILES: C1=CC(=C(C=C1CCO)O)O
InChI: InChI=1S/C8H10O3/c9-4-3-6-1-2-7(10)8(11)5-6/h1-2,5,9-11H,3-4H2
Instrument: Thermo_Qexactive_Plus
Instrument type: LC-ESI-QFT
Ms type: MS2
Ion mode: NEGATIVE
Ionization: ESI
Collision energy: NCE_15_30_77
Column name: Acquity CSHC18
Retention time: 1.891 min
Base peak: 153.0547
Precursor m/z: 153.0547
Precursor type: [M-H]-
Precursor intensity: 518881100
m/z	relative intensity
68.3911	6
70.906	7
87.8286	12
122.0364	13
123.0439	74
124.0475	353
153.0545	999
