Mass spectrum: C16-04:0 PC; ESI-TOF; MS2; CE: 0.6458333;  [M+H]+
Name: C16-04:0 PC
Class: NA
Formula: C28H58NO7P
Exact mass: 551.39509
SMILES: [H]C([H])([H])C([H])([H])C([H])([H])C(=O)OC([H])(C([H])([H])OC([H])([H])C([H])([H])C([H])([H])C([H])([H])C([H])([H])C([H])([H])C([H])([H])C([H])([H])C([H])([H])C([H])([H])C([H])([H])C([H])([H])C([H])([H])C([H])([H])C([H])([H])C([H])([H])[H])C([H])([H])OP(=O)([O-])OC([H])([H])C([H])([H])[N+](C([H])([H])[H])(C([H])([H])[H])C([H])([H])[H]
InChI: InChI=1S/C28H58NO7P/c1-6-8-9-10-11-12-13-14-15-16-17-18-19-20-23-33-25-27(36-28(30)21-7-2)26-35-37(31,32)34-24-22-29(3,4)5/h27H,6-26H2,1-5H3
Instrument: waters xevo g2 TOF
Instrument type: ESI-TOF
Ms type: MS2
Ion mode: POSITIVE
Ionization: ESI
Collision energy: 0.6458333
Column name: Acquity CSHC18
Retention time: 8.560 min
Base peak: 552.40309
Precursor m/z: 552.40309
Precursor type: [M+H]+
m/z	relative intensity
57.0713	3
71.0865	14
85.1019	8
86.0975	79
87.1005	3
98.9845	2
104.1079	24
125.001	26
127.0074	17
145.0173	1
146.9825	32
162.9479	4
166.0627	3
184.1094	999
185.077	129
186.0782	21
198.0913	2
310.0726	6
328.0457	2
346.0115	2
363.9819	1
369.3365	91
370.3394	23
387.2116	4
387.7129	2
391.3182	10
392.322	1
405.2753	2
464.3499	88
465.3532	21
466.3557	7
482.3592	4
515.3085	96
516.3145	14
517.3158	2
526.323	2
541.8384	4
542.3376	2
552.4024	282
553.4057	94
