Mass spectrum: O-acyl sugar AS12; LC-ESI-QTOF; MS2; CE: 22.5eV; [M+Na]+
Name: O-acyl sugar AS12
Class: O-acyl sugar
Formula: C29H46O16
Exact mass: 650.2786
SMILES: CC(C)C(=O)O[C@H]1[C@H](O[C@H](COC(C)=O)[C@@H](OC(=O)C(C)CC)[C@@H]1OC(=O)C(C)C)O[C@]1(CO)O[C@H](CO)[C@@H](OC(C)=O)[C@@H]1O
InChI: InChI=1S/C29H46O16/c1-9-15(6)27(37)41-20-19(11-38-16(7)32)40-28(23(43-26(36)14(4)5)22(20)42-25(35)13(2)3)45-29(12-31)24(34)21(39-17(8)33)18(10-30)44-29/h13-15,18-24,28,30-31,34H,9-12H2,1-8H3/t15?,18-,19-,20-,21-,22+,23-,24+,28-,29+/m1/s1
Instrument: Microtof-q MS
Instrument type: LC-ESI-QTOF
Ms type: MS2
Ion mode: POSITIVE
Ionization: ESI
Collision energy: 22.5eV
Column name: Acquity CSH C18 column (particle size 1.7 μm, column length 2.1 × 50 mm) (Waters)
Retention time: NA
Base peak: 673.2723
Precursor m/z: 673.2723
Precursor type: [M+Na]+
m/z	relative intensity
97.0263	37
205.0727	75
381.1516	84
469.2050	517
571.1896	44
585.2072	33
673.2723	999
