Mass spectrum: 2,5-dihydroxybenzoic acid; LC-ESI-QTOF; MS2; CE: 15;  [M-H]-
Name: 2,5-dihydroxybenzoic acid
Class: NA
Formula: C7H6O4
Exact mass: 154.0266
SMILES: C1=CC(=C(C=C1O)C(=O)O)O
InChI: InChI=1S/C7H6O4/c8-4-1-2-6(9)5(3-4)7(10)11/h1-3,8-9H,(H,10,11)
Instrument: Bruker MicrOTOF-Q
Instrument type: LC-ESI-QTOF
Ms type: MS2
Ion mode: NEGATIVE
Ionization: ESI
Collision energy: 15
Column name: Acquity CSHC18
Retention time: NA
Base peak: 153.0193
Precursor m/z: 153.0193
Precursor type: [M-H]-
m/z	relative intensity
46.1977	17
46.7232	13
47.5875	15
48.7161	16
50.7627	15
52.9817	14
53.9991	14
55.0123	14
56.8446	13
57.9023	16
58.9149	17
60.6635	14
62.0237	15
62.7714	15
63.4918	13
64.376	14
65.3678	15
66.1069	17
66.8511	13
67.3992	21
67.968	15
68.8153	12
69.3455	14
69.9147	18
71.8746	14
73.1089	17
74.3627	17
75.3357	14
76.4626	14
77.1898	17
78.7064	12
79.6264	15
81.2716	17
82.815	14
83.5767	15
86.2962	15
87.8234	14
88.5229	13
90.3462	13
91.3893	15
92.6849	15
94.826	15
95.7199	19
96.2727	16
96.798	14
99.5809	14
100.6488	17
101.6782	14
103.2356	14
106.3723	13
108.5951	999
123.0109	16
153.0198	154
