Mass spectrum: Alpha-Linolenic acid; LC-ESI-ITFT; MS2; CE: 40;  [M-H]-
Name: Alpha-Linolenic acid
Class: Lipids and lipid-like molecules; Fatty Acyls; Lineolic acids and derivatives
Formula: C18H30O2
Exact mass: 278.22458
SMILES: CC\C=C/C\C=C/C\C=C/CCCCCCCC(O)=O
InChI: InChI=1S/C18H30O2/c1-2-3-4-5-6-7-8-9-10-11-12-13-14-15-16-17-18(19)20/h3-4,6-7,9-10H,2,5,8,11-17H2,1H3,(H,19,20)/b4-3-,7-6-,10-9-
Instrument: Thermo Scientific Q-Exactive Focus
Instrument type: LC-ESI-ITFT
Ms type: MS2
Ion mode: NEGATIVE
Ionization: ESI
Collision energy: 40
Column name: Acquity CSHC18
Retention time: 1.477 min
Base peak: 277.21729
Precursor m/z: 277.21729
Precursor type: [M-H]-
m/z	relative intensity
79.9561	999
102.9875	303
104.9852	78
114.7548	73
137.4505	78
165.7065	74
202.8616	72
208.943	73
212.9347	133
226.9785	73
