Mass spectrum: Gibberellin A4; LC-ESI-QTOF; MS2; CE: -10, -35, -60V;  [M-H]-
Name: Gibberellin A4
Class: NA
Formula: C19H24O5
Exact mass: 332.1624
SMILES: CC12C(CCC3(C1C(C45C3CCC(C4)C(=C)C5)C(=O)O)OC2=O)O
InChI: InChI=1S/C19H24O5/c1-9-7-18-8-10(9)3-4-11(18)19-6-5-12(20)17(2,16(23)24-19)14(19)13(18)15(21)22/h10-14,20H,1,3-8H2,2H3,(H,21,22)
Instrument: TripleToF 5600; Sciex
Instrument type: LC-ESI-QTOF
Ms type: MS2
Ion mode: NEGATIVE
Ionization: ESI
Collision energy: -10, -35, -60V
Column name: Acquity CSHC18
Retention time: 15.945 min
Base peak: 331.1596
Precursor m/z: 331.1596
Precursor type: [M-H]-
Precursor intensity: 263969
m/z	relative intensity
73.0277	48
157.0994	44
169.103	59
173.0953	44
183.1154	47
213.1304	568
223.1463	53
225.1309	41
225.1669	295
239.1445	41
241.1594	72
243.1762	544
251.148	39
257.1185	535
269.154	410
285.1549	35
287.1657	447
313.1487	216
331.1369	21
331.1549	999
