Mass spectrum: Uridine diphosphate-N-acetylglucosamine; LC-ESI-ITFT; MS2; CE: 20;  [M-H]-
Name: Uridine diphosphate-N-acetylglucosamine
Class: Nucleosides, nucleotides, and analogues; Pyrimidine nucleotides; Pyrimidine nucleotide sugars
Formula: C17H27N3O17P2
Exact mass: 607.08157
SMILES: CC(=O)N[C@@H]1[C@@H](O)[C@H](O)[C@@H](CO)O[C@@H]1OP(O)(=O)OP(O)(=O)OC[C@H]1O[C@H]([C@H](O)[C@@H]1O)N1C=CC(=O)NC1=O
InChI: InChI=1S/C17H27N3O17P2/c1-6(22)18-10-13(26)11(24)7(4-21)35-16(10)36-39(31,32)37-38(29,30)33-5-8-12(25)14(27)15(34-8)20-3-2-9(23)19-17(20)28/h2-3,7-8,10-16,21,24-27H,4-5H2,1H3,(H,18,22)(H,29,30)(H,31,32)(H,19,23,28)/t7-,8-,10-,11-,12-,13-,14-,15-,16-/m1/s1
Instrument: Thermo Scientific Q-Exactive Focus
Instrument type: LC-ESI-ITFT
Ms type: MS2
Ion mode: NEGATIVE
Ionization: ESI
Collision energy: 20
Column name: Acquity CSHC18
Retention time: 0.647 min
Base peak: 606.07428
Precursor m/z: 606.07428
Precursor type: [M-H]-
m/z	relative intensity
78.9578	5
272.9572	7
282.0383	38
300.0488	11
323.0282	15
362.0045	30
384.9714	8
384.9839	80
402.9942	29
606.0742	999
