Mass spectrum: (+)-catechin; LC-ESI-ITFT; MS2; CE: 0.3;  [M-H]-
Name: (+)-catechin
Class: flavanols
Formula: C15H14O6
Exact mass: 290.0790
SMILES: C1C(C(OC2=CC(=CC(=C21)O)O)C3=CC(=C(C=C3)O)O)O
InChI: InChI=1S/C15H14O6/c16-8-4-11(18)9-6-13(20)15(21-14(9)5-8)7-1-2-10(17)12(19)3-7/h1-5,13,15-20H,6H2
Instrument: LTQ-Orbitrap XL hybrid mass spectrometer (Thermo Scientific)
Instrument type: LC-ESI-ITFT
Ms type: MS2
Ion mode: NEGATIVE
Ionization: ESI
Collision energy: 0.3
Column name: Acquity CSHC18
Retention time: 5.746 min
Base peak: 289.0716
Precursor m/z: 289.0716
Precursor type: [M-H]-
Precursor intensity: 19371510
m/z	relative intensity
65.7244	2
66.1338	2
66.429	4
66.5395	4
67.3841	2
71.6256	2
76.4369	3
79.7266	2
85.012	3
86.1226	2
89.0258	2
90.0562	2
103.8172	2
105.9117	2
109.0301	9
122.0873	2
123.0457	6
125.025	37
135.0458	6
137.0249	32
151.0405	16
159.0456	6
161.0612	33
161.1578	3
161.1684	3
162.0326	3
164.0118	8
165.0197	37
167.0353	20
167.7544	2
175.0403	9
179.0353	150
186.0688	4
187.0403	20
188.048	15
196.1556	8
201.0924	4
202.0639	3
203.0717	125
203.7798	3
205.0509	395
217.0505	2
217.0871	6
227.0715	26
231.0301	69
241.7776	3
242.3237	2
242.8708	2
243.4213	7
243.9728	4
243.9863	2
244.1938	4
245.0706	7
245.0821	999
245.0917	4
245.1053	5
245.6395	5
246.1988	2
247.0612	51
271.0611	41
286.5009	2
286.5068	3
286.5186	2
289.0718	176
