Mass spectrum: Glycine; LC-ESI-ITFT; MS2; CE: 40;  [M+H]+
Name: Glycine
Class: Organic acids and derivatives; Carboxylic acids and derivatives; Amino acids, peptides, and analogues
Formula: C2H5NO2
Exact mass: 75.03203
SMILES: NCC(O)=O
InChI: InChI=1S/C2H5NO2/c3-1-2(4)5/h1,3H2,(H,4,5)
Instrument: Thermo Scientific Q-Exactive Focus
Instrument type: LC-ESI-ITFT
Ms type: MS2
Ion mode: POSITIVE
Ionization: ESI
Collision energy: 40
Column name: Acquity CSHC18
Retention time: 1.463 min
Base peak: 76.03930
Precursor m/z: 76.03930
Precursor type: [M+H]+
m/z	relative intensity
53.8598	999
63.4298	955
69.6474	877
72.1174	985
73.0091	900
78.4569	887
83.2443	882
84.5642	894
89.9345	889
92.5242	982
