Mass spectrum: Putative_Glomeratose B; LC-ESI-QTOF; MS2; CE: 20-40eV;  [M+NH4]+
Name: Putative_Glomeratose B
Class: Lignans glycosides
Formula: C32H38O17
Exact mass: 694.2109
SMILES: COC=1C=C(C(=C(C(=O)OC2(C(C(CO)(OC2(CO)OC3(C(C(C(C(COC(C(=C(C4=CC=C(C=C4)O)[H])[H])=O)(O3)[H])(O)[H])(O)[H])(O)[H])[H])[H])(O)[H])[H])[H])[H])C=C(C1O)OC
InChI: InChI=1S/C32H38O17/c1-43-19-11-17(12-20(44-2)25(19)38)6-10-24(37)47-30-27(40)21(13-33)48-32(30,15-34)49-31-29(42)28(41)26(39)22(46-31)14-45-23(36)9-5-16-3-7-18(35)8-4-16/h3-12,21-22,26-31,33-35,38-42H,13-15H2,1-2H3
Instrument: Impact II, Bruker; Dionex 3000, Thermo Scientific
Instrument type: LC-ESI-QTOF
Ms type: MS2
Ion mode: POSITIVE
Ionization: ESI
Collision energy: 20-40eV
Column name: Acquity CSHC18
Retention time: 5.857 min
Base peak: 712.2460
Precursor m/z: 712.2460
Precursor type: [M+NH4]+
Precursor intensity: 8402.38
m/z	relative intensity
179.0797	14
207.0546	20
339.1288	22
531.189	34
532.1899	163
538.2258	999
