Mass spectrum: 2-Furoylglycine; ESI-TOF; MS2; CE: 0.6458333;  [M+H]+
Name: 2-Furoylglycine
Class: NA
Formula: C7H7NO4
Exact mass: 169.03751
SMILES: OC(=O)CNC(=O)C1=CC=CO1
InChI: InChI=1S/C7H7NO4/c9-6(10)4-8-7(11)5-2-1-3-12-5/h1-3H,4H2,(H,8,11)(H,9,10)
Instrument: waters xevo g2 TOF
Instrument type: ESI-TOF
Ms type: MS2
Ion mode: POSITIVE
Ionization: ESI
Collision energy: 0.6458333
Column name: Acquity CSHC18
Retention time: 1.627 min
Base peak: 170.04551
Precursor m/z: 170.04551
Precursor type: [M+H]+
m/z	relative intensity
67.0181	4
83.9766	15
95.0135	999
96.0168	101
97.9694	14
98.9618	6
106.9814	10
108.0451	36
110.9767	1
119.032	13
122.9768	2
124.0008	58
128.952	1
135.9615	16
150.9719	11
153.0128	4
164.0024	195
166.967	79
167.9733	17
176.0172	2
178.9682	41
179.9746	89
180.9819	27
181.9955	24
182.9794	3
184.9773	7
192.9906	11
194.9854	17
196.9775	30
197.9826	14
207.9924	121
208.9958	21
210.9935	9
216.0512	7
218.9743	2
232.023	1
232.9777	38
233.9843	4
246.0056	10
246.9944	49
248.0006	112
250.0017	15
251.9709	4
260.0067	5
262.0031	78
263.0032	19
273.0722	6
275.0075	29
276.0642	5
288.0043	8
289.0502	43
289.9991	117
291.0013	20
295.8911	1
300.0194	9
302.0972	7
304.0162	20
305.0219	58
306.0148	6
308.0176	1
319.051	11
320.0095	37
333.0393	4
335.4436	5
363.0407	15
370.9901	3
377.0296	34
391.9944	20
414.9808	4
430.9486	7
445.9196	1
449.9317	5
561.0194	4
570.9589	2
584.0146	4
599.9842	6
613.9547	3
615.9594	25
616.9631	2
