Mass spectrum: Dihomo-gamma-Linolenoyl ethanolamide; LC-ESI-ITFT; MS2; CE: 100;  [M+H]+
Name: Dihomo-gamma-Linolenoyl ethanolamide
Class: Organic nitrogen compounds; Organonitrogen compounds; Amines
Formula: C22H39NO2
Exact mass: 349.29808
SMILES: CCCCC\C=C/C\C=C/C\C=C/CCCCCCC(=O)NCCO
InChI: InChI=1S/C22H39NO2/c1-2-3-4-5-6-7-8-9-10-11-12-13-14-15-16-17-18-19-22(25)23-20-21-24/h6-7,9-10,12-13,24H,2-5,8,11,14-21H2,1H3,(H,23,25)/b7-6-,10-9-,13-12-
Instrument: Thermo Scientific Q-Exactive Focus
Instrument type: LC-ESI-ITFT
Ms type: MS2
Ion mode: POSITIVE
Ionization: ESI
Collision energy: 100
Column name: Acquity CSHC18
Retention time: NA
Base peak: 350.30536
Precursor m/z: 350.30536
Precursor type: [M+H]+
m/z	relative intensity
51.0235	322
53.0028	337
53.0391	719
55.0548	601
65.0391	792
67.0547	995
79.0546	773
91.0545	963
95.0494	999
105.045	256
