Mass spectrum: dATP; LC-ESI-QTOF; MS2; CE: -10, -35, -60V;  [M-H]-
Name: dATP
Class: NA
Formula: C10H16N5O12P3
Exact mass: 491.0008
SMILES: C1C(C(OC1N2C=NC3=C(N=CN=C32)N)COP(=O)(O)OP(=O)(O)OP(=O)(O)O)O
InChI: InChI=1S/C10H16N5O12P3/c11-9-8-10(13-3-12-9)15(4-14-8)7-1-5(16)6(25-7)2-24-29(20,21)27-30(22,23)26-28(17,18)19/h3-7,16H,1-2H2,(H,20,21)(H,22,23)(H2,11,12,13)(H2,17,18,19)
Instrument: TripleToF 5600; Sciex
Instrument type: LC-ESI-QTOF
Ms type: MS2
Ion mode: NEGATIVE
Ionization: ESI
Collision energy: -10, -35, -60V
Column name: Acquity CSHC18
Retention time: 15.377 min
Base peak: 489.9948
Precursor m/z: 489.9948
Precursor type: [M-H]-
Precursor intensity: 184832.3
m/z	relative intensity
78.9593	387
158.9262	999
176.9376	53
238.8917	61
256.9625	81
274.9753	20
392.0151	214
410.0306	83
410.0534	4
471.976	23
489.9943	311
