Mass spectrum: O-Acetylserine; LC-ESI-ITFT; MS2; CE: 40;  [M+H]+
Name: O-Acetylserine
Class: Organic acids and derivatives; Carboxylic acids and derivatives; Amino acids, peptides, and analogues
Formula: C5H9NO4
Exact mass: 147.05316
SMILES: CC(=O)OC[C@H](N)C(O)=O
InChI: InChI=1S/C5H9NO4/c1-3(7)10-2-4(6)5(8)9/h4H,2,6H2,1H3,(H,8,9)/t4-/m0/s1
Instrument: Thermo Scientific Q-Exactive Focus
Instrument type: LC-ESI-ITFT
Ms type: MS2
Ion mode: POSITIVE
Ionization: ESI
Collision energy: 40
Column name: Acquity CSHC18
Retention time: 1.464 min
Base peak: 148.06042
Precursor m/z: 148.06042
Precursor type: [M+H]+
m/z	relative intensity
60.0352	36
60.045	999
88.0398	51
92.5225	38
117.06	36
132.6953	33
140.4654	38
140.5772	36
141.2772	35
159.7652	33
