Mass spectrum: Fraxin; LC-ESI-QTOF; MS2; CE: 20.33;  [M+H]+
Name: Fraxin
Class: NA
Formula: C16H18O10
Exact mass: 370.0900
SMILES: COC1=C(C(=C2C(=C1)C=CC(=O)O2)OC3C(C(C(C(O3)CO)O)O)O)O
InChI: InChI=1S/C16H18O10/c1-23-7-4-6-2-3-9(18)25-14(6)15(11(7)20)26-16-13(22)12(21)10(19)8(5-17)24-16/h2-4,8,10,12-13,16-17,19-22H,5H2,1H3
Instrument: Bruker MicrOTOF-Q
Instrument type: LC-ESI-QTOF
Ms type: MS2
Ion mode: POSITIVE
Ionization: ESI
Collision energy: 20.33
Column name: Acquity CSHC18
Retention time: NA
Base peak: 371.0973
Precursor m/z: 371.0973
Precursor type: [M+H]+
m/z	relative intensity
181.0495	12
194.0195	15
209.0442	27
210.0477	103
211.0485	999
