Mass spectrum: Feruloylgenipin gentiobioside; LC-ESI-QTOF; MS2; CE: 20-40eV;  [M+NH4]+
Name: Feruloylgenipin gentiobioside
Class: Hydroxycinnamic acids and derivatives
Formula: C32H40O18
Exact mass: 712.2215
SMILES: COC=1C=C(C=CC1O)C(=C(C(=O)OCC2(C(C(C(C(OCC3(C(C(C(C(O3)(OC4(C5(C(=CCC5(C(=CO4)C(=O)O)[H])CO)[H])[H])[H])(O)[H])(O)[H])(O)[H])[H])(O2)[H])(O)[H])(O)[H])(O)[H])[H])[H])[H]
InChI: InChI=1S/C32H40O18/c1-44-18-8-13(2-6-17(18)34)3-7-21(35)45-11-19-23(36)25(38)27(40)31(48-19)47-12-20-24(37)26(39)28(41)32(49-20)50-30-22-14(9-33)4-5-15(22)16(10-46-30)29(42)43/h2-4,6-8,10,15,19-20,22-28,30-34,36-41H,5,9,11-12H2,1H3,(H,42,43)
Instrument: Impact II, Bruker; Dionex 3000, Thermo Scientific
Instrument type: LC-ESI-QTOF
Ms type: MS2
Ion mode: POSITIVE
Ionization: ESI
Collision energy: 20-40eV
Column name: Acquity CSHC18
Retention time: 3.753 min
Base peak: 730.2552
Precursor m/z: 730.2552
Precursor type: [M+NH4]+
Precursor intensity: 94727.75
m/z	relative intensity
145.0388	138
195.1458	168
195.4973	999
