Mass spectrum: (-)-Bilobalide; LC-ESI-QFT; MS2; CE: 15,30,45 (NCE);  [2M+Na]+
Name: (-)-Bilobalide
Class: NA
Formula: C15H18O8
Exact mass: 326.1002
SMILES: CC(C)(C)C1(O)CC2OC(=O)CC22C(=O)OC3OC(=O)C(O)C123
InChI: InChI=1S/C15H18O8/c1-12(2,3)14(20)4-6-13(5-7(16)21-6)10(19)23-11-15(13,14)8(17)9(18)22-11/h6,8,11,17,20H,4-5H2,1-3H3
Instrument: QE Focus, Thermo Scientfic; UPLC I-Class, Waters
Instrument type: LC-ESI-QFT
Ms type: MS2
Ion mode: POSITIVE
Ionization: ESI
Collision energy: 15,30,45 (NCE)
Column name: Acquity CSHC18
Retention time: 1.487 min
Base peak: 675.1907
Precursor m/z: 675.1907
Precursor type: [2M+Na]+
Precursor intensity: 17431060
m/z	relative intensity
50.0396	3
52.413	3
56.048	2
86.5085	3
93.9187	3
138.7652	3
143.6369	3
349.0891	999
352.627	3
367.0971	3
390.1164	7
615.8688	3
675.1806	4
