Mass spectrum: L-TRYPTOPHANAMIDE; LC-ESI-QTOF; MS2; CE: 10;  [M+H]+
Name: L-TRYPTOPHANAMIDE
Class: NA
Formula: C11H13N3O
Exact mass: 203.10586
SMILES: NC(CC1=CNC2=CC=CC=C12)C(N)=O
InChI: InChI=1S/C11H13N3O/c12-9(11(13)15)5-7-6-14-10-4-2-1-3-8(7)10/h1-4,6,9,14H,5,12H2,(H2,13,15)
Instrument: Agilent 6530Â Q-TOF LC/MS
Instrument type: LC-ESI-QTOF
Ms type: MS2
Ion mode: POSITIVE
Ionization: ESI
Collision energy: 10
Column name: NA
Retention time: 0.200 min
Base peak: 204.10919
Precursor m/z: 204.10919
Precursor type: [M+H]+
Precursor intensity: 20.5
m/z	relative intensity
44.0183	24
55.0299	24
73.0505	25
77.0519	25
89.0326	25
91.0693	25
93.0572	26
102.0928	26
103.0826	26
105.0763	26
115.0793	27
116.0651	28
117.0892	28
118.0866	29
127.0732	29
128.0572	31
130.1105	34
131.0743	34
132.3537	35
132.8271	36
133.0898	37
133.6358	38
134.0734	40
140.048	44
142.1038	44
142.2952	45
142.4627	45
143.0962	46
144.8379	57
145.8205	64
146.0272	64
146.3107	69
157.0715	77
158.0931	79
158.9374	89
159.8434	99
160.8215	101
161.8224	108
162.5852	114
169.0908	163
170.1021	214
170.3302	253
170.5509	422
186.1026	489
187.6428	552
188.4014	610
188.5814	660
188.7152	716
189.8809	812
203.1855	860
204.1759	999
204.7266	24
