Mass spectrum: METHIONINE SULFOXIMINE; LC-ESI-QTOF; MS2; CE: 10;  [M+H]+
Name: METHIONINE SULFOXIMINE
Class: NA
Formula: C5H12N2O3S
Exact mass: 180.05686
SMILES: CS(=N)(=O)CCC(N)C(O)=O
InChI: InChI=1S/C5H12N2O3S/c1-11(7,10)3-2-4(6)5(8)9/h4,7H,2-3,6H2,1H3,(H,8,9)
Instrument: Agilent 6530Â Q-TOF LC/MS
Instrument type: LC-ESI-QTOF
Ms type: MS2
Ion mode: POSITIVE
Ionization: ESI
Collision energy: 10
Column name: NA
Retention time: 0.200 min
Base peak: 181.06702
Precursor m/z: 181.06702
Precursor type: [M+H]+
Precursor intensity: 119.5
m/z	relative intensity
41.041	23
44.0612	24
46.0343	24
54.0322	24
56.0751	25
56.2622	26
57.0516	27
62.9951	28
72.0508	28
74.0714	34
74.3825	37
74.4807	38
80.0444	44
84.0661	61
85.0398	65
88.0386	68
100.0425	90
102.2165	102
102.5226	123
102.6068	323
102.7299	356
120.0101	366
163.0681	676
164.0319	742
181.1016	999
