Mass spectrum: Luteolin 7 glu; LC-ESI-QFT; MS2; CE: NCE_15_30_79;  [M-H]-
Name: Luteolin 7 glu
Class: NA
Formula: C21H20O11
Exact mass: 448.1006
SMILES: C1=CC(=C(C=C1C2=CC(=O)C3=C(C=C(C=C3O2)OC4C(C(C(C(O4)CO)O)O)O)O)O)O
InChI: InChI=1S/C21H20O11/c22-7-16-18(27)19(28)20(29)21(32-16)30-9-4-12(25)17-13(26)6-14(31-15(17)5-9)8-1-2-10(23)11(24)3-8/h1-6,16,18-25,27-29H,7H2
Instrument: Thermo_Qexactive_Plus
Instrument type: LC-ESI-QFT
Ms type: MS2
Ion mode: NEGATIVE
Ionization: ESI
Collision energy: NCE_15_30_79
Column name: Acquity CSHC18
Retention time: 4.717 min
Base peak: 447.0937
Precursor m/z: 447.0937
Precursor type: [M-H]-
Precursor intensity: 219445600
m/z	relative intensity
54.8671	5
62.446	5
65.0009	5
74.0053	5
83.0826	5
83.3267	6
122.8616	6
128.8179	6
131.6197	6
133.0295	6
152.7443	6
161.5502	6
175.0385	6
184.7539	6
219.0726	6
240.3434	7
254.7045	9
280.5108	9
284.035	11
285.0413	26
286.0389	82
297.0424	267
327.0518	899
447.0932	999
