Mass spectrum: Tryptophan; LC-ESI-QTOF; MS2; CE: 20-40eV;  [M+H]+
Name: Tryptophan
Class: Amino acids and derivatives
Formula: C11H12N2O2
Exact mass: 204.0899
SMILES: C1=CC=C2C(=C1)C(CC(C(=O)O)(N)[H])=CN2
InChI: InChI=1S/C11H12N2O2/c12-9(11(14)15)5-7-6-13-10-4-2-1-3-8(7)10/h1-4,6,9,13H,5,12H2,(H,14,15)
Instrument: Impact II, Bruker; Dionex 3000, Thermo Scientific
Instrument type: LC-ESI-QTOF
Ms type: MS2
Ion mode: POSITIVE
Ionization: ESI
Collision energy: 20-40eV
Column name: Acquity CSHC18
Retention time: 2.593 min
Base peak: 205.0974
Precursor m/z: 205.0974
Precursor type: [M+H]+
Precursor intensity: 73726.75
m/z	relative intensity
95.0492	11
103.0546	37
105.0697	9
106.063	9
115.0535	279
116.0583	39
117.0564	202
117.0694	41
118.0644	292
119.0682	27
121.1003	5
127.0516	9
128.0486	21
129.1336	6
130.0642	157
130.9897	6
131.0705	36
132.0806	110
133.083	16
134.0873	6
140.0471	7
141.0559	19
142.0654	103
143.0722	206
144.0438	7
144.0797	239
145.0468	6
145.0827	15
146.0593	999
147.0628	115
159.0911	138
160.0771	15
160.095	36
170.0596	107
171.0646	6
188.0702	545
188.1671	6
189.0749	56
204.1408	7
205.0988	12
