Mass spectrum: Solasodanol; APCI-ITFT; MS2; CE: 35 CID;  [M+H]+
Name: Solasodanol
Class: NA
Formula: C27H45NO2
Exact mass: 415.34503
SMILES: CC1CCC2(C(C3C(O2)CC4C3(CCC5C4CCC6C5(CCC(C6)O)C)C)C)NC1
InChI: InChI=1S/C27H45NO2/c1-16-7-12-27(28-15-16)17(2)24-23(30-27)14-22-20-6-5-18-13-19(29)8-10-25(18,3)21(20)9-11-26(22,24)4/h16-24,28-29H,5-15H2,1-4H3
Instrument: Orbitrap Elite
Instrument type: APCI-ITFT
Ms type: MS2
Ion mode: POSITIVE
Ionization: APCI
Collision energy: 35 CID
Column name: Acquity CSHC18
Retention time: 0.078 min
Base peak: 416.35220
Precursor m/z: 416.35220
Precursor type: [M+H]+
Precursor intensity: 5777770
m/z	relative intensity
124.1124	935
133.1012	937
151.112	619
171.1167	359
213.164	904
254.1975	576
272.2105	999
381.3139	393
