Mass spectrum: Bilobetin; LC-ESI-QFT; MS2; CE: 15,30,45 (NCE);  [2M-H]-
Name: Bilobetin
Class: NA
Formula: C31H20O10
Exact mass: 552.1056
SMILES: COC1=C(C=C(C=C1)C1=CC(=O)C2=C(O)C=C(O)C=C2O1)C1=C2OC(=CC(=O)C2=C(O)C=C1O)C1=CC=C(O)C=C1
InChI: InChI=1S/C31H20O10/c1-39-24-7-4-15(26-12-22(37)29-19(34)9-17(33)10-27(29)40-26)8-18(24)28-20(35)11-21(36)30-23(38)13-25(41-31(28)30)14-2-5-16(32)6-3-14/h2-13,32-36H,1H3
Instrument: QE Focus, Thermo Scientfic; UPLC I-Class, Waters
Instrument type: LC-ESI-QFT
Ms type: MS2
Ion mode: NEGATIVE
Ionization: ESI
Collision energy: 15,30,45 (NCE)
Column name: Acquity CSHC18
Retention time: 3.067 min
Base peak: 1103.2040
Precursor m/z: 1103.2040
Precursor type: [2M-H]-
Precursor intensity: 6118579
m/z	relative intensity
107.0125	205
129.9	85
281.5473	90
367.0625	999
416.0527	483
442.0343	546
493.0573	839
