Mass spectrum: CYTOSINE; LC-ESI-QTOF; MS2; CE: 20;  [M-H]-
Name: CYTOSINE
Class: NA
Formula: C4H5N3O
Exact mass: 111.04326
SMILES: NC1=CC=NC(=O)N1
InChI: InChI=1S/C4H5N3O/c5-3-1-2-6-4(8)7-3/h1-2H,(H3,5,6,7,8)
Instrument: Agilent 6530Â Q-TOF LC/MS
Instrument type: LC-ESI-QTOF
Ms type: MS2
Ion mode: NEGATIVE
Ionization: ESI
Collision energy: 20
Column name: NA
Retention time: 0.200 min
Base peak: 110.03804
Precursor m/z: 110.03804
Precursor type: [M-H]-
Precursor intensity: 154
m/z	relative intensity
40.0261	113
42.0129	162
50.0067	163
65.0151	247
67.035	274
80.9678	999
