Mass spectrum: Carbaprostacyclin; ESI-TOF; MS2; CE: 6.0000000;  [M+H]+
Name: Carbaprostacyclin
Class: NA
Formula: C21H34O4
Exact mass: 350.24571
SMILES: O[C@H]1[C@H](/C=C/[C@@H](O)CCCCC)[C@@H](C/C(C2)=C/CCCC(O)=O)[C@@H]2C1
InChI: InChI=1S/C21H34O4/c1-2-3-4-8-17(22)10-11-18-19-13-15(7-5-6-9-21(24)25)12-16(19)14-20(18)23/h7,10-11,16-20,22-23H,2-6,8-9,12-14H2,1H3,(H,24,25)/b11-10+,15-7+/t16-,17-,18+,19-,20+/m0/s1
Instrument: waters xevo g2 TOF
Instrument type: ESI-TOF
Ms type: MS2
Ion mode: POSITIVE
Ionization: ESI
Collision energy: 6.0000000
Column name: Acquity CSHC18
Retention time: 4.628 min
Base peak: 351.25371
Precursor m/z: 351.25371
Precursor type: [M+H]+
m/z	relative intensity
95.0863	3
101.0002	3
105.0703	2
117.071	9
131.0872	5
133.1027	3
143.96	29
147.1182	3
149.1331	19
161.098	10
163.1126	3
167.1045	4
171.1182	2
173.1332	8
175.1491	1
177.0928	11
177.5954	5
179.1073	30
181.1111	2
186.0987	88
186.601	21
187.1484	40
188.1538	2
189.17	1
193.61	2
195.11	12
201.1652	6
203.1127	2
205.0887	6
207.1384	7
213.1641	14
215.1791	8
217.1234	16
221.1559	2
223.1578	1
227.1441	6
231.1372	19
241.1589	3
245.1547	14
247.1699	2
259.1701	12
269.2253	10
270.2283	3
273.1838	5
279.2101	48
280.2138	7
287.2163	6
297.2217	198
298.2258	20
314.2244	3
315.2724	999
316.2352	446
317.2463	61
318.2399	4
331.2262	60
332.232	11
333.2434	460
334.2467	96
335.2475	12
349.2356	19
352.2141	12
