Mass spectrum: 18:1 Lyso PG; ESI-TOF; MS2; CE: 6.0000000;  [M+H]+
Name: 18:1 Lyso PG
Class: NA
Formula: C24H46NaO9P
Exact mass: 532.27771
SMILES: [H]OC([H])([H])C([H])(O[H])C([H])([H])OP(=O)([O-])OC([H])([H])C([H])(O[H])C([H])([H])OC(=O)C([H])([H])C([H])([H])C([H])([H])C([H])([H])C([H])([H])C([H])([H])C([H])([H])C([H])=C([H])C([H])([H])C([H])([H])C([H])([H])C([H])([H])C([H])([H])C([H])([H])C([H])([H])C([H])([H])[H].[Na+]
InChI: InChI=1S/C24H47O9P.Na/c1-2-3-4-5-6-7-8-9-10-11-12-13-14-15-16-17-24(28)31-19-23(27)21-33-34(29,30)32-20-22(26)18-25;/h9-10,22-23,25-27H,2-8,11-21H2,1H3,(H,29,30);/q;+1/p-1
Instrument: waters xevo g2 TOF
Instrument type: ESI-TOF
Ms type: MS2
Ion mode: POSITIVE
Ionization: ESI
Collision energy: 6.0000000
Column name: Acquity CSHC18
Retention time: 10.888 min
Base peak: 533.28571
Precursor m/z: 533.28571
Precursor type: [M+H]+
m/z	relative intensity
69.0706	1
83.0864	1
109.1027	1
125.9876	37
143.9599	55
176.9926	1
265.2529	1
285.006	82
294.1031	185
302.0893	50
339.2902	999
340.2936	200
379.2824	43
457.2032	1
457.7049	1
465.1855	1
475.2823	424
476.2865	134
494.2968	76
511.3039	135
530.7784	58
532.3304	286
532.834	165
533.2864	477
534.2909	1
