Mass spectrum: 8-Methylsulfinyloctyl glucosinolate; LC-ESI-QTOF; MS2; CE: 15.00;  [M-C6H10O8S+H]+
Name: 8-Methylsulfinyloctyl glucosinolate
Class: NA
Formula: C16H31NO10S3
Exact mass: 493.1110
SMILES: CS(=O)CCCCCCCCC(=NOS(=O)(=O)O)SC1C(C(C(C(O1)CO)O)O)O
InChI: InChI=1S/C16H31NO10S3/c1-29(22)9-7-5-3-2-4-6-8-12(17-27-30(23,24)25)28-16-15(21)14(20)13(19)11(10-18)26-16/h11,13-16,18-21H,2-10H2,1H3,(H,23,24,25)
Instrument: Bruker MicrOTOF-Q
Instrument type: LC-ESI-QTOF
Ms type: MS2
Ion mode: POSITIVE
Ionization: ESI
Collision energy: 15.00
Column name: Acquity CSHC18
Retention time: NA
Base peak: 252.1086
Precursor m/z: 252.1086
Precursor type: [M-C6H10O8S+H]+
m/z	relative intensity
120.0794	69
134.0941	651
136.1136	406
138.1249	999
170.1002	823
174.075	76
184.1143	416
185.1228	111
202.1254	135
360.2595	91
