Mass spectrum: Byakangelicol; LC-ESI-ITFT; MS2; CE: 45eV;  [M+H]+
Name: Byakangelicol
Class: coumarin
Formula: C17H16O6
Exact mass: 316.0947
SMILES: CC1(C(O1)COC2=C3C(=C(C4=C2OC(=O)C=C4)OC)C=CO3)C
InChI: InChI=1S/C17H16O6/c1-17(2)11(23-17)8-21-16-14-10(6-7-20-14)13(19-3)9-4-5-12(18)22-15(9)16/h4-7,11H,8H2,1-3H3
Instrument: LTQ Orbitrap XL, Thermo Scientfic; Dionex Ultimate 300
Instrument type: LC-ESI-ITFT
Ms type: MS2
Ion mode: POSITIVE
Ionization: ESI
Collision energy: 45eV
Column name: Alltima C18
Retention time: 14.91 min
Base peak: 317.1010
Precursor m/z: 317.1010
Precursor type: [M+H]+
m/z	relative intensity
217.9479	1
231.013	999
