Mass spectrum: 6-beta-Prostaglandin I1; ESI-TOF; MS2; CE: 6.0000000;  [M+H]+
Name: 6-beta-Prostaglandin I1
Class: NA
Formula: C20H34O5
Exact mass: 354.24062
SMILES: CCCCC[C@H](O)/C=C/[C@H]1[C@H](O)C[C@H]2[C@@H]1C[C@@](CCCCC(O)=O)([H])O2
InChI: InChI=1S/C20H34O5/c1-2-3-4-7-14(21)10-11-16-17-12-15(8-5-6-9-20(23)24)25-19(17)13-18(16)22/h10-11,14-19,21-22H,2-9,12-13H2,1H3,(H,23,24)/b11-10+/t14-,15-,16+,17+,18+,19-/m0/s1
Instrument: waters xevo g2 TOF
Instrument type: ESI-TOF
Ms type: MS2
Ion mode: POSITIVE
Ionization: ESI
Collision energy: 6.0000000
Column name: Acquity CSHC18
Retention time: 3.710 min
Base peak: 355.24862
Precursor m/z: 355.24862
Precursor type: [M+H]+
m/z	relative intensity
83.049	1
101.0609	9
107.0879	1
111.0453	17
115.0767	2
135.1165	1
161.1164	2
169.0179	2
172.9739	1
175.1497	27
176.1535	4
179.0909	16
187.1129	30
188.1065	31
189.1649	26
190.1649	2
191.1798	24
192.184	2
193.1594	6
197.0999	3
201.1286	5
203.1431	16
205.1233	25
206.125	1
207.1751	46
208.1786	7
209.1231	1
221.1534	28
275.1966	5
276.2008	1
283.2042	23
284.2077	4
293.2086	12
301.2168	116
302.2206	24
303.2282	5
317.2063	2
319.2272	204
320.2316	45
321.24	19
335.2148	1
337.2393	999
338.2409	241
339.2468	36
351.2534	34
356.2094	22
356.7127	4
