Mass spectrum: ARABITOL; LC-ESI-QFT; MS2; CE: 30eV;  [M+H]+
Name: ARABITOL
Class: NA
Formula: C5H12O5
Exact mass: 152.06847
SMILES: OC[C@H](O)C(O)[C@@H](O)CO
InChI: InChI=1S/C5H12O5/c6-1-3(8)5(10)4(9)2-7/h3-10H,1-2H2/t3-,4-/m0/s1
Instrument: Q-Exactive Orbitrap, Thermo Scientfic; Ultimate 3000 HPLC, Thermo Scientfic
Instrument type: LC-ESI-QFT
Ms type: MS2
Ion mode: POSITIVE
Ionization: ESI
Collision energy: 30eV
Column name: Acquity CSHC18
Retention time: 0.568 min
Base peak: 153.0758
Precursor m/z: 153.0758
Precursor type: [M+H]+
Precursor intensity: 124
m/z	relative intensity
52.4742	1
53.0393	29
55.0186	30
57.0342	502
58.0375	10
59.0498	23
59.4712	1
61.0291	66
65.2861	1
67.3662	1
68.9434	10
69.0341	999
70.0375	17
71.0134	163
71.0498	133
72.0168	1
73.029	147
74.8768	1
75.0447	17
78.3788	1
81.0341	46
81.0705	2
87.0446	42
91.0395	10
93.0704	4
94.3767	1
95.0496	2
95.0861	3
97.6938	1
99.0445	493
100.0478	14
102.0225	2
107.0858	3
109.1016	4
109.959	2
110.7763	1
112.9765	11
117.0549	159
118.0583	2
121.0287	39
129.9916	7
130.0168	4
130.963	9
135.0654	60
135.1168	2
147.9668	3
148.7921	1
148.9734	3
153.0547	4
153.0759	6
153.0911	7
153.1275	11
161.9741	1
