Mass spectrum: Veratramine; ESI-QTOF; MS2; CE: 1, 35, 60;  [M+H]+
Name: Veratramine
Class: steroidal alkaloid
Formula: C27H39NO2
Exact mass: 409.2981
SMILES: CC1CC(C(NC1)C(C)C2=C(C3=C(C=C2)C4CC=C5CC(CCC5(C4C3)C)O)C)O
InChI: InChI=1S/C27H39NO2/c1-15-11-25(30)26(28-14-15)17(3)20-7-8-21-22-6-5-18-12-19(29)9-10-27(18,4)24(22)13-23(21)16(20)2/h5,7-8,15,17,19,22,24-26,28-30H,6,9-14H2,1-4H3
Instrument: AB Sciex TripleToF 5500
Instrument type: ESI-QTOF
Ms type: MS2
Ion mode: POSITIVE
Ionization: ESI
Collision energy: 1, 35, 60
Column name: Acquity CSHC18
Retention time: 6.779 min
Base peak: 410.3044
Precursor m/z: 410.3044
Precursor type: [M+H]+
Precursor intensity: 2623054
m/z	relative intensity
69.0436	52
80.0504	78
81.0629	98
85.072	126
115.0767	157
142.1003	308
157.095	341
206.1092	999
