Mass spectrum: 15(R)-15-methyl Prostaglandin E2; ESI-TOF; MS2; CE: 0.6458333;  [M+H]+
Name: 15(R)-15-methyl Prostaglandin E2
Class: NA
Formula: C21H34O5
Exact mass: 366.24062
SMILES: O=C1[C@H](C/C=C\CCCC(O)=O)[C@@H](/C=C/[C@](C)(O)CCCCC)[C@H](O)C1
InChI: InChI=1S/C21H34O5/c1-3-4-9-13-21(2,26)14-12-17-16(18(22)15-19(17)23)10-7-5-6-8-11-20(24)25/h5,7,12,14,16-17,19,23,26H,3-4,6,8-11,13,15H2,1-2H3,(H,24,25)/b7-5-,14-12+/t16-,17-,19-,21-/m1/s1
Instrument: waters xevo g2 TOF
Instrument type: ESI-TOF
Ms type: MS2
Ion mode: POSITIVE
Ionization: ESI
Collision energy: 0.6458333
Column name: Acquity CSHC18
Retention time: 3.677 min
Base peak: 367.24862
Precursor m/z: 367.24862
Precursor type: [M+H]+
m/z	relative intensity
69.0707	128
79.0544	255
81.0704	390
109.0664	135
111.0806	57
121.03	82
132.0902	71
135.0804	145
141.0709	146
142.0785	70
153.0694	51
154.0799	56
155.0859	697
159.081	977
167.0712	88
169.1022	787
173.0962	637
181.1043	184
183.1175	285
187.1466	191
193.0922	101
197.125	367
201.0918	156
203.1098	101
205.1406	84
207.1191	144
211.1096	105
215.1235	144
217.1408	194
221.1249	192
225.1269	308
229.1592	632
231.1802	59
239.142	262
241.195	290
243.2091	272
244.1428	229
253.1956	171
259.206	157
261.1156	61
269.1891	259
277.2048	216
285.2232	136
286.2246	61
295.2054	999
313.2179	832
314.2199	292
331.2268	585
332.1834	102
349.2405	143
350.244	16
369.1746	123
