Mass spectrum: N-METHYLTRYPTAMINE; LC-ESI-QTOF; MS2; CE: 10;  [M+H]+
Name: N-METHYLTRYPTAMINE
Class: NA
Formula: C11H14N2
Exact mass: 174.11570
SMILES: CNCCC1=CNC2=CC=CC=C12
InChI: InChI=1S/C11H14N2/c1-12-7-6-9-8-13-11-5-3-2-4-10(9)11/h2-5,8,12-13H,6-7H2,1H3
Instrument: Agilent 6530Â Q-TOF LC/MS
Instrument type: LC-ESI-QTOF
Ms type: MS2
Ion mode: POSITIVE
Ionization: ESI
Collision energy: 10
Column name: NA
Retention time: 0.200 min
Base peak: 175.12567
Precursor m/z: 175.12567
Precursor type: [M+H]+
Precursor intensity: 71.5
m/z	relative intensity
42.0402	10
44.2808	10
45.0559	10
51.0274	10
58.0758	10
65.0519	10
66.0495	10
67.0501	11
77.0632	11
78.0449	11
89.0528	11
90.0616	11
91.087	11
92.0632	11
93.0584	11
101.0487	11
102.0478	12
103.0751	12
104.0608	12
105.0893	13
106.0668	13
115.2441	13
115.6715	13
116.0627	13
117.457	13
118.2411	14
118.802	15
126.0493	16
127.1003	18
127.2813	22
127.5045	24
128.0876	29
129.0721	31
130.0866	32
131.0886	34
131.3738	42
131.6864	42
131.7851	44
132.8922	45
133.885	45
134.068	55
134.1875	61
134.4499	69
140.0458	78
141.5078	79
142.1151	99
142.6966	115
144.975	153
147.3447	184
147.5883	192
147.6962	236
147.9924	276
148.2679	427
148.7219	450
175.2582	451
175.5832	999
175.782	10
176.0861	10
