Mass spectrum: Serotonin; LC-ESI-ITFT; MS2; CE: 100;  [M+H]+
Name: Serotonin
Class: Organoheterocyclic compounds; Indoles and derivatives; Tryptamines and derivatives
Formula: C10H12N2O
Exact mass: 176.09496
SMILES: NCCC1=CNC2=CC=C(O)C=C12
InChI: InChI=1S/C10H12N2O/c11-4-3-7-6-12-10-2-1-8(13)5-9(7)10/h1-2,5-6,12-13H,3-4,11H2
Instrument: Thermo Scientific Q-Exactive Focus
Instrument type: LC-ESI-ITFT
Ms type: MS2
Ion mode: POSITIVE
Ionization: ESI
Collision energy: 100
Column name: Acquity CSHC18
Retention time: 2.572 min
Base peak: 177.10223
Precursor m/z: 177.10223
Precursor type: [M+H]+
m/z	relative intensity
50.0157	687
51.0235	999
53.0028	250
61.0078	99
62.0157	405
63.0235	695
74.0156	198
75.0234	52
89.039	146
95.0495	54
