Mass spectrum: 8-Hydroxy Kaempferol-3,8,4'-O-methylether; LC-ESI-QTOF; MS2; CE: 50eV;  [M+H]+
Name: 8-Hydroxy Kaempferol-3,8,4'-O-methylether
Class: Flavonol
Formula: C18H16O7
Exact mass: 344.0896
SMILES: COC1=CC=C(C=C1)C2=C(C(=O)C3=C(O2)C(=C(C=C3O)O)OC)OC
InChI: InChI=1S/C18H16O7/c1-22-10-6-4-9(5-7-10)15-18(24-3)14(21)13-11(19)8-12(20)16(23-2)17(13)25-15/h4-8,19-20H,1-3H3
Instrument: TIMS-TOF Pro, Bruker Daltonik; Elute UHPLC System, Bruker Daltonik
Instrument type: LC-ESI-QTOF
Ms type: MS2
Ion mode: POSITIVE
Ionization: ESI
Collision energy: 50eV
Column name: Acquity CSHC18
Retention time: 9.398 min
Base peak: 345.0934
Precursor m/z: 345.0934
Precursor type: [M+H]+
Precursor intensity: 449767.4
m/z	relative intensity
116.0528	10
124.6163	17
135.0435	88
138.9993	32
161.0551	45
174.8158	3
184.0516	22
189.0509	16
226.6591	3
230.0517	7
271.9926	11
287.0556	32
288.0591	17
314.8789	9
315.0478	222
316.0512	37
330.0697	234
331.0736	30
345.064	38
345.0934	999
