Mass spectrum: Methandrostenolone; LC-ESI-QTOF; MS2; CE: 20;  [M+H]+
Name: Methandrostenolone
Class: NA
Formula: C20H28O2
Exact mass: 300.2089
SMILES: C[C@]12CC[C@H]3[C@H]([C@@H]1CC[C@]2(C)O)CCC4=CC(=O)C=C[C@]34C
InChI: InChI=1S/C20H28O2/c1-18-9-6-14(21)12-13(18)4-5-15-16(18)7-10-19(2)17(15)8-11-20(19,3)22/h6,9,12,15-17,22H,4-5,7-8,10-11H2,1-3H3/t15-,16+,17+,18+,19+,20+/m1/s1
Instrument: Agilent 6560Â Ion Mobility Q-TOF LC/MS
Instrument type: LC-ESI-QTOF
Ms type: MS2
Ion mode: POSITIVE
Ionization: ESI
Collision energy: 20
Column name: Acquity CSHC18
Retention time: 0.200 min
Base peak: 301.2164
Precursor m/z: 301.2164
Precursor type: [M+H]+
Precursor intensity: 95.5
m/z	relative intensity
81.0715	133
93.0737	133
95.0848	143
107.0879	166
109.1008	174
121.0822	188
122.0672	228
135.0778	323
147.0793	384
149.1374	461
173.0967	999
