Mass spectrum: N-ACETYLALANINE; LC-ESI-QTOF; MS2; CE: 20;  [M-H]-
Name: N-ACETYLALANINE
Class: NA
Formula: C5H9NO3
Exact mass: 131.05824
SMILES: C[C@H](NC(C)=O)C(O)=O
InChI: InChI=1S/C5H9NO3/c1-3(5(8)9)6-4(2)7/h3H,1-2H3,(H,6,7)(H,8,9)/t3-/m0/s1
Instrument: Agilent 6530Â Q-TOF LC/MS
Instrument type: LC-ESI-QTOF
Ms type: MS2
Ion mode: NEGATIVE
Ionization: ESI
Collision energy: 20
Column name: NA
Retention time: 0.200 min
Base peak: 130.05282
Precursor m/z: 130.05282
Precursor type: [M-H]-
Precursor intensity: 159
m/z	relative intensity
42.0036	234
88.0617	999
