Mass spectrum: URIDINE; LC-ESI-QFT; MS2; CE: 30eV;  [M-H]-
Name: URIDINE
Class: NA
Formula: C9H12N2O6
Exact mass: 244.06954
SMILES: OC[C@H]1O[C@H]([C@H](O)[C@@H]1O)N1C=CC(=O)NC1=O
InChI: InChI=1S/C9H12N2O6/c12-3-4-6(14)7(15)8(17-4)11-2-1-5(13)10-9(11)16/h1-2,4,6-8,12,14-15H,3H2,(H,10,13,16)/t4-,6-,7-,8-/m1/s1
Instrument: Q-Exactive Orbitrap, Thermo Scientfic; Ultimate 3000 HPLC, Thermo Scientfic
Instrument type: LC-ESI-QFT
Ms type: MS2
Ion mode: NEGATIVE
Ionization: ESI
Collision energy: 30eV
Column name: Acquity CSHC18
Retention time: 0.833 min
Base peak: 243.0623
Precursor m/z: 243.0623
Precursor type: [M-H]-
Precursor intensity: 124
m/z	relative intensity
53.4775	1
54.8076	1
56.2092	1
56.8494	1
57.6502	1
59.0123	2
61.3016	1
61.8618	1
62.2631	1
66.0334	63
67.0368	1
67.2514	1
68.0127	10
69.033	1
69.0926	1
70.4135	1
71.0122	6
71.1435	1
77.0164	1
80.0489	1
82.0283	114
83.0122	1
83.4109	1
83.9292	2
84.044	10
84.4576	1
85.0277	1
86.0232	1
89.0228	5
93.4177	1
94.0282	9
96.0439	15
99.9243	2
99.9355	1
101.9397	2
108.0439	29
110.0232	999
111.0184	58
111.0265	34
112.0218	1
113.023	2
117.0178	8
120.0439	8
122.0232	51
123.027	2
124.0389	22
126.0546	4
128.0336	1
132.029	2
138.0546	5
140.0339	123
141.0373	4
152.0339	179
153.0292	56
153.0372	7
154.0332	1
155.9144	5
158.0843	1
164.0343	6
171.9208	4
173.9251	16
182.0449	8
186.3186	1
186.9102	1
191.8847	1
200.0555	210
201.059	9
218.7012	1
243.0619	54
