Mass spectrum: Nicotinic acid; LC-ESI-QTOF; MS2; CE: 15 / 50;  [M-H]-
Name: Nicotinic acid
Class: NA
Formula: C6H5NO2
Exact mass: 123.0320
SMILES: C1=CC(=CN=C1)C(=O)O
InChI: InChI=1S/C6H5NO2/c8-6(9)5-2-1-3-7-4-5/h1-4H,(H,8,9)
Instrument: impact II
Instrument type: LC-ESI-QTOF
Ms type: MS2
Ion mode: NEGATIVE
Ionization: ESI
Collision energy: 15 / 50
Column name: Acquity CSHC18
Retention time: 0.665 min
Base peak: 122.0248
Precursor m/z: 122.0248
Precursor type: [M-H]-
m/z	relative intensity
78.0355	999
79.039	54
122.0247	55
123.0284	4
