Mass spectrum: Polydatin; LC-ESI-QTOF; MS2; CE: 21.68;  [M-H]-
Name: Polydatin
Class: NA
Formula: C20H22O8
Exact mass: 390.1315
SMILES: C1=CC(=CC=C1C=CC2=CC(=CC(=C2)OC3C(C(C(C(O3)CO)O)O)O)O)O
InChI: InChI=1S/C20H22O8/c21-10-16-17(24)18(25)19(26)20(28-16)27-15-8-12(7-14(23)9-15)2-1-11-3-5-13(22)6-4-11/h1-9,16-26H,10H2
Instrument: Bruker MicrOTOF-Q
Instrument type: LC-ESI-QTOF
Ms type: MS2
Ion mode: NEGATIVE
Ionization: ESI
Collision energy: 21.68
Column name: Acquity CSHC18
Retention time: NA
Base peak: 389.1242
Precursor m/z: 389.1242
Precursor type: [M-H]-
m/z	relative intensity
49.9718	47
51.5127	29
56.4581	25
60.72	32
73.6115	27
75.6909	28
79.6126	34
82.0439	25
87.7252	41
92.8735	54
98.7515	38
101.5994	31
105.0134	28
108.3065	32
109.1618	25
111.8275	46
113.3718	29
114.6392	37
119.9528	32
121.4975	37
127.4206	40
129.612	29
137.5451	29
138.2266	51
143.0476	63
147.2079	38
148.3119	37
154.0121	51
158.4618	53
159.0866	38
160.3446	29
165.6997	28
169.891	34
170.4559	33
175.5401	47
181.0688	93
182.0721	51
183.6183	36
185.1855	223
186.0642	67
188.2526	34
194.5768	36
199.0782	86
201.1273	31
204.3089	31
204.9094	54
205.5067	34
208.6324	41
209.7151	37
217.5235	27
218.5228	31
226.1652	41
227.3484	999
228.6172	28
229.0758	71
230.8815	25
232.8881	31
236.7831	34
256.4049	45
269.078	27
277.5049	42
309.8744	31
376.0995	31
377.9603	34
389.1529	32
401.8699	44
417.4315	56
433.3552	31
451.0177	50
453.7133	31
465.1461	31
489.7562	58
527.9702	44
618.1823	27
674.8491	51
691.5665	32
807.6679	29
856.4682	27
901.9797	54
958.1343	41
