Mass spectrum: 8-iso-15-keto Prostaglandin F2-beta; ESI-TOF; MS2; CE: 6.0000000;  [M+H]+
Name: 8-iso-15-keto Prostaglandin F2-beta
Class: NA
Formula: C20H32O5
Exact mass: 352.22497
SMILES: O[C@@H]1C[C@@H](O)[C@@H](C/C=C\CCCC(O)=O)[C@H]1/C=C/C(CCCCC)=O
InChI: InChI=1S/C20H32O5/c1-2-3-6-9-15(21)12-13-17-16(18(22)14-19(17)23)10-7-4-5-8-11-20(24)25/h4,7,12-13,16-19,22-23H,2-3,5-6,8-11,14H2,1H3,(H,24,25)/b7-4-,13-12+/t16-,17+,18+,19+/m0/s1
Instrument: waters xevo g2 TOF
Instrument type: ESI-TOF
Ms type: MS2
Ion mode: POSITIVE
Ionization: ESI
Collision energy: 6.0000000
Column name: Acquity CSHC18
Retention time: 3.333 min
Base peak: 353.23297
Precursor m/z: 353.23297
Precursor type: [M+H]+
m/z	relative intensity
71.0859	1
91.0546	1
97.9695	79
99.0812	1
106.0864	1
115.0548	1
117.0707	8
118.0747	1
128.0224	12
129.071	1
131.0864	1
141.0712	1
142.0786	1
143.0854	1
144.089	1
145.1018	1
151.1113	1
155.0852	1
156.0901	1
157.1027	10
159.1164	7
162.9735	23
169.1025	1
171.119	1
173.1161	18
175.1129	1
178.0824	51
181.1017	1
182.0033	1
183.1177	91
184.122	9
185.0967	58
187.0884	151
187.5897	25
191.1426	5
194.0953	5
196.0936	32
201.1281	257
202.1306	29
203.107	210
204.112	1
207.1377	12
219.1386	205
220.1418	21
221.1028	5
225.1303	1
231.0658	1
233.1519	8
236.169	5
253.1955	8
255.1744	11
271.2022	1
273.1854	190
274.187	26
275.2756	33
281.1903	54
289.211	7
299.2008	321
300.2034	59
309.0993	1
317.2102	999
318.2117	227
319.2186	24
329.1417	1
335.2218	971
336.2248	222
347.1545	1
353.2331	336
354.2352	54
