Mass spectrum: Pinostilbene; LC-ESI-QTOF; MS2; CE: 15;  [M-H]-
Name: Pinostilbene
Class: NA
Formula: C15H14O3
Exact mass: 242.0943
SMILES: COC1=CC(=CC(=C1)O)C=CC2=CC=C(C=C2)O
InChI: InChI=1S/C15H14O3/c1-18-15-9-12(8-14(17)10-15)3-2-11-4-6-13(16)7-5-11/h2-10,16-17H,1H3
Instrument: Bruker MicrOTOF-Q
Instrument type: LC-ESI-QTOF
Ms type: MS2
Ion mode: NEGATIVE
Ionization: ESI
Collision energy: 15
Column name: Acquity CSHC18
Retention time: NA
Base peak: 241.0870
Precursor m/z: 241.0870
Precursor type: [M-H]-
m/z	relative intensity
52.7021	10
71.9316	10
82.9393	10
100.8022	11
161.957	20
213.0864	28
219.5778	10
221.0117	11
228.7342	999
236.038	13
237.2384	6
239.3729	31
243.5869	741
247.4486	8
248.6661	8
250.0247	10
251.0188	10
252.5684	8
253.6394	5
254.3807	9
254.9914	5
256.4941	6
258.252	8
259.1553	5
261.097	9
263.2729	11
265.1618	8
265.9585	5
267.4287	8
268.3782	7
269.4477	7
271.8681	10
274.8341	11
275.7794	5
278.0248	8
280.4184	7
282.0465	9
283.3378	5
286.8731	13
290.4927	7
291.3242	7
297.1643	9
297.9402	10
300.3222	8
300.8959	6
305.8019	8
306.2244	12
307.0263	12
308.1626	11
309.6456	11
310.5128	10
312.0852	7
320.0476	10
321.8616	7
325.4194	12
328.1172	12
329.1347	10
330.8677	10
337.7253	9
340.395	9
345.6876	10
347.4736	9
347.8872	12
349.8129	9
350.3575	8
351.4606	8
359.7012	12
360.8034	7
361.7521	10
363.7224	9
365.7829	10
366.399	9
366.8044	11
367.5705	11
369.4674	9
370.9269	6
371.4042	8
372.8189	11
373.7853	8
374.677	8
378.5105	9
381.0772	6
383.5251	7
384.3811	10
385.0798	13
387.7555	7
400.6213	9
401.718	11
402.4589	6
411.1713	12
414.0714	10
415.8648	14
418.27	10
424.414	9
426.7761	7
462.1257	9
477.0217	7
482.769	8
497.3853	9
520.3895	8
528.6628	8
539.2415	5
556.2486	11
577.0286	7
590.3196	6
600.0675	7
640.9238	7
670.6111	9
696.3125	6
738.5504	5
778.8579	10
836.8787	6
839.429	6
856.2601	8
880.0855	7
881.7627	9
935.4574	8
938.1173	6
957.8353	6
