Mass spectrum: 4,4' -Sulfonyldiphenol; ESI-TOF; MS2; CE: 6.0000000;  [M+H]+
Name: 4,4' -Sulfonyldiphenol
Class: NA
Formula: C12H10O4S
Exact mass: 250.02998
SMILES: C1=CC(=CC=C1O)S(=O)(=O)C2=CC=C(C=C2)O
InChI: InChI=1S/C12H10O4S/c13-9-1-5-11(6-2-9)17(15,16)12-7-3-10(14)4-8-12/h1-8,13-14H
Instrument: waters xevo g2 TOF
Instrument type: ESI-TOF
Ms type: MS2
Ion mode: POSITIVE
Ionization: ESI
Collision energy: 6.0000000
Column name: Acquity CSHC18
Retention time: 2.194 min
Base peak: 251.03798
Precursor m/z: 251.03798
Precursor type: [M+H]+
m/z	relative intensity
93.0341	5
109.0288	3
156.9957	42
157.9988	2
160.9993	4
163.0074	1
165.5102	14
170.003	3
174.514	8
177.0216	4
181.5228	9
186.046	10
190.527	3
250.0305	9
251.0378	999
252.0404	152
