Mass spectrum: Prostaglandin E2 p-benzamidophenyl ester; ESI-TOF; MS2; CE: 0.6458333;  [M+H]+
Name: Prostaglandin E2 p-benzamidophenyl ester
Class: NA
Formula: C33H41NO6
Exact mass: 547.29339
SMILES: O=C1[C@H](C/C=C\CCCC(OC2=CC=C(NC(C3=CC=CC=C3)=O)C=C2)=O)[C@@H](/C=C/[C@@H](O)CCCCC)[C@H](O)C1
InChI: InChI=1S/C33H41NO6/c1-2-3-7-14-26(35)19-22-29-28(30(36)23-31(29)37)15-10-4-5-11-16-32(38)40-27-20-17-25(18-21-27)34-33(39)24-12-8-6-9-13-24/h4,6,8-10,12-13,17-22,26,28-29,31,35,37H,2-3,5,7,11,14-16,23H2,1H3,(H,34,39)/b10-4-,22-19+/t26-,28+,29+,31+/m0/s1
Instrument: waters xevo g2 TOF
Instrument type: ESI-TOF
Ms type: MS2
Ion mode: POSITIVE
Ionization: ESI
Collision energy: 0.6458333
Column name: Acquity CSHC18
Retention time: 4.356 min
Base peak: 548.30139
Precursor m/z: 548.30139
Precursor type: [M+H]+
m/z	relative intensity
91.0552	12
95.0863	13
105.0347	310
109.101	8
110.0608	2
117.0716	19
121.1025	10
123.1168	4
131.0864	34
133.1022	29
135.5277	4
136.0388	7
137.0967	4
141.0703	5
143.0856	11
145.0661	15
147.0822	13
151.1126	16
155.0856	11
157.1021	18
159.1171	13
161.1327	29
169.102	25
171.1169	16
173.1324	26
181.1008	3
185.0973	11
187.1486	27
189.1279	20
191.1431	8
193.1022	6
195.1178	3
197.133	24
198.1353	3
201.128	21
202.1284	3
203.1435	25
204.15	4
205.1593	6
214.0872	999
215.1441	167
216.1468	17
217.1658	3
225.127	14
227.1799	15
229.1956	12
233.1543	20
239.1797	6
243.1338	2
245.1887	23
248.2084	2
252.0339	143
253.1952	24
255.1737	15
263.1806	16
271.2064	24
273.1848	21
275.6168	20
281.1816	124
282.1939	13
283.1957	2
284.6218	29
289.2135	5
299.2009	350
300.203	61
317.2115	138
318.2143	8
322.1424	3
355.1689	4
408.2523	3
458.2691	10
459.2693	3
486.2663	6
494.2667	7
495.2809	3
512.2807	166
513.2852	57
514.2831	5
530.2909	240
531.2947	96
532.2963	16
