Mass spectrum: N-Alpha-acetyllysine; LC-ESI-ITFT; MS2; CE: 100;  [M+H]+
Name: N-Alpha-acetyllysine
Class: Organic acids and derivatives; Carboxylic acids and derivatives; Amino acids, peptides, and analogues
Formula: C8H16N2O3
Exact mass: 188.11609
SMILES: CC(=O)NC(CCCCN)C(O)=O
InChI: InChI=1S/C8H16N2O3/c1-6(11)10-7(8(12)13)4-2-3-5-9/h7H,2-5,9H2,1H3,(H,10,11)(H,12,13)
Instrument: Thermo Scientific Q-Exactive Focus
Instrument type: LC-ESI-ITFT
Ms type: MS2
Ion mode: POSITIVE
Ionization: ESI
Collision energy: 100
Column name: Acquity CSHC18
Retention time: 2.570 min
Base peak: 189.12337
Precursor m/z: 189.12337
Precursor type: [M+H]+
m/z	relative intensity
53.0028	887
54.0344	968
56.0501	445
62.4516	428
92.5224	999
112.635	429
116.1432	421
169.4291	430
177.5257	431
178.666	487
