Mass spectrum: Citrulline; ESI-TOF; MS2; CE: 6.0000000;  [M+H]+
Name: Citrulline
Class: NA
Formula: C6H13N3O3
Exact mass: 175.09569
SMILES: NC(CCCNC(N)=O)C(O)=O
InChI: InChI=1S/C6H13N3O3/c7-4(5(10)11)2-1-3-9-6(8)12/h4H,1-3,7H2,(H,10,11)(H3,8,9,12)
Instrument: waters xevo g2 TOF
Instrument type: ESI-TOF
Ms type: MS2
Ion mode: POSITIVE
Ionization: ESI
Collision energy: 6.0000000
Column name: Acquity CSHC18
Retention time: 0.534 min
Base peak: 176.10369
Precursor m/z: 176.10369
Precursor type: [M+H]+
m/z	relative intensity
70.0663	95
71.0696	4
86.0611	6
96.0452	1
97.0771	7
98.0615	1
113.0719	311
114.056	65
115.0874	190
116.0716	78
117.0756	5
130.0978	5
131.0277	2
133.098	19
137.9886	32
138.9895	1
141.0671	41
142.0511	10
158.0486	5
159.11	999
160.0802	169
161.082	20
173.0918	2
176.1038	273
177.107	23
