Mass spectrum: ALLOSE; LC-ESI-QFT; MS2; CE: 30eV;  [M-H]-
Name: ALLOSE
Class: NA
Formula: C6H12O6
Exact mass: 180.06339
SMILES: [H][C@@]1(CO)OC(O)[C@@]([H])(O)[C@@]([H])(O)[C@@]1([H])O
InChI: InChI=1S/C6H12O6/c7-1-2-3(8)4(9)5(10)6(11)12-2/h2-11H,1H2/t2-,3-,4-,5-,6?/m0/s1
Instrument: Q-Exactive Orbitrap, Thermo Scientfic; Ultimate 3000 HPLC, Thermo Scientfic
Instrument type: LC-ESI-QFT
Ms type: MS2
Ion mode: NEGATIVE
Ionization: ESI
Collision energy: 30eV
Column name: Acquity CSHC18
Retention time: 0.573 min
Base peak: 179.0561
Precursor m/z: 179.0561
Precursor type: [M-H]-
Precursor intensity: 126
m/z	relative intensity
52.8113	11
54.0202	10
55.1755	10
56.9383	13
59.0124	690
60.2176	11
63.1416	11
63.4135	11
63.4911	9
71.0124	323
71.3997	14
75.5992	13
82.9286	11
87.9238	31
89.023	249
90.9233	57
90.9967	283
91.2337	13
101.023	98
103.9188	57
104.7772	11
104.9269	48
112.6756	12
113.0232	24
113.2366	12
114.1997	11
116.3814	13
117.9346	120
119.0337	78
120.7536	11
134.9131	30
134.9867	999
135.99	14
149.3581	13
150.953	26
178.8143	55
178.8573	15
178.9767	221
196.6853	12
