Mass spectrum: L-Phenylalanine; ESI-TOF; MS2; CE: 6.0000000;  [M+H]+
Name: L-Phenylalanine
Class: NA
Formula: C9H11NO2
Exact mass: 165.07898
SMILES: NC(CC1=CC=CC=C1)C(O)=O
InChI: InChI=1S/C9H11NO2/c10-8(9(11)12)6-7-4-2-1-3-5-7/h1-5,8H,6,10H2,(H,11,12)
Instrument: waters xevo g2 TOF
Instrument type: ESI-TOF
Ms type: MS2
Ion mode: POSITIVE
Ionization: ESI
Collision energy: 6.0000000
Column name: Acquity CSHC18
Retention time: 1.349 min
Base peak: 166.08698
Precursor m/z: 166.08698
Precursor type: [M+H]+
m/z	relative intensity
103.0549	34
103.0552	16
104.0582	3
104.0585	1
107.0498	9
107.05	8
114.9715	3
114.9722	4
120.0815	999
120.0818	871
121.0846	76
121.085	75
131.05	29
132.053	4
132.0533	4
149.0606	11
149.0612	11
166.0869	299
166.0871	176
167.0901	56
175.0088	1
188.0687	3
208.9423	1
208.9448	1
