Mass spectrum: 3-indolymethyl glucosinolate; LC-ESI-QTOF; MS2; CE: 50eV;  [M-H]-
Name: 3-indolymethyl glucosinolate
Class: indolic glucosinolate
Formula: C16H20N2O9S2
Exact mass: 448.0610
SMILES: C1=CC=C2C(=C1)C(=CN2)CC(=NOS(=O)(=O)O)SC3C(C(C(C(O3)CO)O)O)O
InChI: InChI=1S/C16H20N2O9S2/c19-7-11-13(20)14(21)15(22)16(26-11)28-12(18-27-29(23,24)25)5-8-6-17-10-4-2-1-3-9(8)10/h1-4,6,11,13-17,19-22H,5,7H2,(H,23,24,25)
Instrument: TIMS-TOF Pro, Bruker Daltonik; Elute UHPLC System, Bruker Daltonik
Instrument type: LC-ESI-QTOF
Ms type: MS2
Ion mode: NEGATIVE
Ionization: ESI
Collision energy: 50eV
Column name: Acquity CSHC18
Retention time: 6.468 min
Base peak: 447.0457
Precursor m/z: 447.0457
Precursor type: [M-H]-
Precursor intensity: 44178
m/z	relative intensity
41.9968	2
52.7665	2
59.0115	14
71.0114	7
74.9892	266
75.9879	2
76.9849	5
79.9556	53
80.964	12
81.9588	2
85.0274	5
87.1281	1
89.0221	5
95.9506	409
96.2041	2
96.9572	290
97.2912	1
97.9455	5
98.9546	5
116.9992	3
205.0367	3
213.8373	1
221.3964	2
225.7508	2
259.0051	5
271.9418	2
274.9846	7
286.0731	1
292.9787	1
446.9257	2
447.0457	999
447.3925	1
447.4892	2
