Mass spectrum: L-Histidine; LC-ESI-QTOF; MS2; CE: 15.00;  [M+H]+
Name: L-Histidine
Class: NA
Formula: C6H9N3O2
Exact mass: 155.0695
SMILES: C1=C(NC=N1)CC(C(=O)O)N
InChI: InChI=1S/C6H9N3O2/c7-5(6(10)11)1-4-2-8-3-9-4/h2-3,5H,1,7H2,(H,8,9)(H,10,11)
Instrument: Bruker MicrOTOF-Q
Instrument type: LC-ESI-QTOF
Ms type: MS2
Ion mode: POSITIVE
Ionization: ESI
Collision energy: 15.00
Column name: Acquity CSHC18
Retention time: NA
Base peak: 156.0768
Precursor m/z: 156.0768
Precursor type: [M+H]+
m/z	relative intensity
93.0442	17
95.4899	10
110.0714	999
110.3252	9
111.0701	151
121.0397	14
138.0765	10
139.0517	53
156.0768	712
157.0772	48
