Mass spectrum: 1-O-Sinapoyl-beta-glucose; LC-ESI-QTOF; MS2; CE: 35.00;  [M-C6H10O5-H2O+H]+
Name: 1-O-Sinapoyl-beta-glucose
Class: NA
Formula: C17H22O10
Exact mass: 386.1213
SMILES: COC1=CC(=CC(=C1O)OC)C=CC(=O)OC2C(C(C(C(O2)CO)O)O)O
InChI: InChI=1S/C17H22O10/c1-24-9-5-8(6-10(25-2)13(9)20)3-4-12(19)27-17-16(23)15(22)14(21)11(7-18)26-17/h3-6,11,14-18,20-23H,7H2,1-2H3
Instrument: Bruker MicrOTOF-Q
Instrument type: LC-ESI-QTOF
Ms type: MS2
Ion mode: POSITIVE
Ionization: ESI
Collision energy: 35.00
Column name: Acquity CSHC18
Retention time: NA
Base peak: 207.0652
Precursor m/z: 207.0652
Precursor type: [M-C6H10O5-H2O+H]+
m/z	relative intensity
121.0095	713
138.9574	999
