Mass spectrum: L-Glutamine; LC-ESI-ITFT; MS2; CE: 60;  [M+H]+
Name: L-Glutamine
Class: Organic acids and derivatives; Carboxylic acids and derivatives; Amino acids, peptides, and analogues
Formula: C5H10N2O3
Exact mass: 146.06914
SMILES: N[C@@H](CCC(N)=O)C(O)=O
InChI: InChI=1S/C5H10N2O3/c6-3(5(9)10)1-2-4(7)8/h3H,1-2,6H2,(H2,7,8)(H,9,10)/t3-/m0/s1
Instrument: Thermo Scientific Q-Exactive Focus
Instrument type: LC-ESI-ITFT
Ms type: MS2
Ion mode: POSITIVE
Ionization: ESI
Collision energy: 60
Column name: Acquity CSHC18
Retention time: 1.936 min
Base peak: 147.07642
Precursor m/z: 147.07642
Precursor type: [M+H]+
m/z	relative intensity
53.0028	71
56.0501	999
56.5424	60
64.9278	205
89.8857	58
92.5242	117
131.5082	58
140.9981	58
164.6717	58
167.841	61
