Mass spectrum: Prostaglandin F2-alpha 1,11-lactone; ESI-TOF; MS2; CE: 0.6458333;  [M+H]+
Name: Prostaglandin F2-alpha 1,11-lactone
Class: NA
Formula: C20H32O4
Exact mass: 336.23006
SMILES: O[C@H]1C[C@@H]2[C@H](/C=C/[C@@H](O)CCCCC)[C@H]1C/C=C\CCCC(O2)=O
InChI: InChI=1S/C20H32O4/c1-2-3-6-9-15(21)12-13-17-16-10-7-4-5-8-11-20(23)24-19(17)14-18(16)22/h4,7,12-13,15-19,21-22H,2-3,5-6,8-11,14H2,1H3/b7-4-,13-12+/t15-,16+,17+,18-,19+/m0/s1
Instrument: waters xevo g2 TOF
Instrument type: ESI-TOF
Ms type: MS2
Ion mode: POSITIVE
Ionization: ESI
Collision energy: 0.6458333
Column name: Acquity CSHC18
Retention time: 3.951 min
Base peak: 337.23806
Precursor m/z: 337.23806
Precursor type: [M+H]+
m/z	relative intensity
71.0852	72
91.055	386
92.0584	24
93.0683	267
95.0855	128
105.0707	416
107.0864	114
109.1029	115
117.0704	583
119.0696	241
121.0653	61
128.0631	121
131.0865	946
132.0904	87
133.1013	171
135.1147	54
141.0709	221
143.0866	636
145.1016	549
146.1062	40
147.0985	162
149.1323	51
155.0866	215
157.1019	669
158.1057	50
159.1182	237
161.1315	118
165.0234	65
167.0856	203
168.0904	28
169.1002	431
171.1179	652
172.1209	103
173.1341	180
175.0963	29
181.1019	297
182.1032	32
183.1168	240
184.1229	32
185.0968	502
186.0997	56
187.1122	413
191.1061	46
195.1178	169
197.1195	69
199.1113	454
200.1139	33
201.1254	65
203.1071	67
205.1233	66
209.1335	116
210.1348	28
213.1278	156
215.1786	129
217.1226	50
219.1356	23
227.0515	32
229.1947	45
231.1371	70
239.1629	211
241.1956	246
243.0675	73
247.0603	25
257.1904	284
265.1955	156
273.1836	14
275.2005	466
276.2045	82
277.1063	25
283.206	488
284.2108	91
301.2165	999
302.2199	206
319.2267	61
332.3309	26
