Mass spectrum: Cortisol; LC-ESI-ITFT; MS2; CE: 40;  [M+H]+
Name: Cortisol
Class: Lipids and lipid-like molecules; Steroids and steroid derivatives; Hydroxysteroids
Formula: C21H30O5
Exact mass: 362.20932
SMILES: [H][C@@]12CC[C@](O)(C(=O)CO)[C@@]1(C)C[C@H](O)[C@@]1([H])[C@@]2([H])CCC2=CC(=O)CC[C@]12C
InChI: InChI=1S/C21H30O5/c1-19-7-5-13(23)9-12(19)3-4-14-15-6-8-21(26,17(25)11-22)20(15,2)10-16(24)18(14)19/h9,14-16,18,22,24,26H,3-8,10-11H2,1-2H3/t14-,15-,16-,18+,19-,20-,21-/m0/s1
Instrument: Thermo Scientific Q-Exactive Focus
Instrument type: LC-ESI-ITFT
Ms type: MS2
Ion mode: POSITIVE
Ionization: ESI
Collision energy: 40
Column name: Acquity CSHC18
Retention time: 1.463 min
Base peak: 363.21661
Precursor m/z: 363.21661
Precursor type: [M+H]+
m/z	relative intensity
97.0652	397
105.0702	289
109.0651	241
119.0858	249
121.0651	999
123.0807	270
131.0857	226
143.0856	203
145.1013	248
147.117	217
