Mass spectrum: Syringin; LC-ESI-QTOF; MS2; CE: 15.00;  [M-C6H10O5-H2O+H]+
Name: Syringin
Class: NA
Formula: C17H24O9
Exact mass: 372.1420
SMILES: COC1=CC(=CC(=C1OC2C(C(C(C(O2)CO)O)O)O)OC)C=CCO
InChI: InChI=1S/C17H24O9/c1-23-10-6-9(4-3-5-18)7-11(24-2)16(10)26-17-15(22)14(21)13(20)12(8-19)25-17/h3-4,6-7,12-15,17-22H,5,8H2,1-2H3
Instrument: Bruker MicrOTOF-Q
Instrument type: LC-ESI-QTOF
Ms type: MS2
Ion mode: POSITIVE
Ionization: ESI
Collision energy: 15.00
Column name: Acquity CSHC18
Retention time: NA
Base peak: 193.0859
Precursor m/z: 193.0859
Precursor type: [M-C6H10O5-H2O+H]+
m/z	relative intensity
103.0521	4
105.0692	6
115.0542	227
116.0586	23
118.042	41
119.0447	1
119.0474	4
130.0408	4
131.0488	81
132.056	41
133.0648	999
133.2587	1
133.2889	1
133.3548	1
133.4803	1
134.0675	97
135.0554	2
137.0563	2
138.0668	1
143.0498	18
143.0985	1
144.0465	1
146.0338	2
146.0354	3
147.0421	7
149.0571	2
150.063	5
159.0351	1
159.0417	2
160.0513	9
160.9365	1
161.0599	704
161.4515	1
162.0632	86
163.0409	5
163.0704	1
177.0582	6
178.0623	19
193.0864	65
194.091	8
