Mass spectrum: N-Alpha-acetyllysine; LC-ESI-ITFT; MS2; CE: 30;  [M-H]-
Name: N-Alpha-acetyllysine
Class: Organic acids and derivatives; Carboxylic acids and derivatives; Amino acids, peptides, and analogues
Formula: C8H16N2O3
Exact mass: 188.11609
SMILES: CC(=O)NC(CCCCN)C(O)=O
InChI: InChI=1S/C8H16N2O3/c1-6(11)10-7(8(12)13)4-2-3-5-9/h7H,2-5,9H2,1H3,(H,10,11)(H,12,13)
Instrument: Thermo Scientific Q-Exactive Focus
Instrument type: LC-ESI-ITFT
Ms type: MS2
Ion mode: NEGATIVE
Ionization: ESI
Collision energy: 30
Column name: Acquity CSHC18
Retention time: 0.927 min
Base peak: 187.10883
Precursor m/z: 187.10883
Precursor type: [M-H]-
m/z	relative intensity
58.0286	499
67.6826	27
78.7276	30
92.5136	47
92.5301	27
97.0758	53
98.184	29
145.0971	999
169.9062	27
195.7918	30
