Mass spectrum: trans-Cinnamic acid; LC-ESI-ITFT; MS2; CE: 30;  [M+H]+
Name: trans-Cinnamic acid
Class: Phenylpropanoids and polyketides; Cinnamic acids and derivatives; Cinnamic acids
Formula: C9H8O2
Exact mass: 148.05243
SMILES: OC(=O)\C=C\C1=CC=CC=C1
InChI: InChI=1S/C9H8O2/c10-9(11)7-6-8-4-2-1-3-5-8/h1-7H,(H,10,11)/b7-6+
Instrument: Thermo Scientific Q-Exactive Focus
Instrument type: LC-ESI-ITFT
Ms type: MS2
Ion mode: POSITIVE
Ionization: ESI
Collision energy: 30
Column name: Acquity CSHC18
Retention time: 0.915 min
Base peak: 149.05971
Precursor m/z: 149.05971
Precursor type: [M+H]+
m/z	relative intensity
51.0236	42
53.0392	276
65.0391	127
77.039	44
79.0547	48
91.0546	26
95.0495	529
102.0468	42
103.0546	999
105.045	149
