Mass spectrum: Carvacrol; LC-ESI-QTOF; MS2; CE: 15.00;  [M+H]+
Name: Carvacrol
Class: NA
Formula: C10H14O
Exact mass: 150.1045
SMILES: CC1=C(C=C(C=C1)C(C)C)O
InChI: InChI=1S/C10H14O/c1-7(2)9-5-4-8(3)10(11)6-9/h4-7,11H,1-3H3
Instrument: Bruker MicrOTOF-Q
Instrument type: LC-ESI-QTOF
Ms type: MS2
Ion mode: POSITIVE
Ionization: ESI
Collision energy: 15.00
Column name: Acquity CSHC18
Retention time: NA
Base peak: 151.1117
Precursor m/z: 151.1117
Precursor type: [M+H]+
m/z	relative intensity
87.5087	1
89.0426	1
91.048	113
92.0522	5
93.0283	3
94.0361	49
95.0389	6
105.028	1
105.066	4
107.045	135
108.0502	14
108.5102	1
108.72	1
109.0607	999
109.1909	4
109.2933	1
109.8704	1
110.0017	1
110.0645	79
115.0526	5
116.0572	3
117.0683	5
121.0631	7
124.0168	2
134.0695	1
135.0767	68
136.0791	7
150.0846	1
151.1047	1
340.6856	1
