Mass spectrum: 13,14-dihydro Prostaglandin F1-alpha; ESI-TOF; MS2; CE: 0.6458333;  [M+H]+
Name: 13,14-dihydro Prostaglandin F1-alpha
Class: NA
Formula: C20H38O5
Exact mass: 358.27192
SMILES: O[C@@H]1[C@H](CCCCCCC(O)=O)[C@@H](CC[C@@H](O)CCCCC)[C@H](O)C1
InChI: InChI=1S/C20H38O5/c1-2-3-6-9-15(21)12-13-17-16(18(22)14-19(17)23)10-7-4-5-8-11-20(24)25/h15-19,21-23H,2-14H2,1H3,(H,24,25)/t15-,16+,17+,18-,19+/m0/s1
Instrument: waters xevo g2 TOF
Instrument type: ESI-TOF
Ms type: MS2
Ion mode: POSITIVE
Ionization: ESI
Collision energy: 0.6458333
Column name: Acquity CSHC18
Retention time: 3.836 min
Base peak: 359.27992
Precursor m/z: 359.27992
Precursor type: [M+H]+
m/z	relative intensity
67.0544	121
69.07	61
79.0549	157
81.0704	272
83.0864	81
91.0555	164
93.0707	543
94.0744	39
95.0864	442
97.1016	39
99.0814	72
99.9735	8
105.0714	261
106.0755	21
107.0869	461
108.089	23
109.1031	266
110.1057	15
111.0813	31
119.0865	226
121.1022	657
122.1052	66
123.1176	90
127.0754	6
129.0717	47
131.0861	150
133.1025	197
135.1173	355
136.1218	34
137.1338	30
143.0872	41
145.1025	100
147.1179	131
148.1211	22
149.1334	174
157.101	52
159.1181	75
161.1336	152
163.1486	118
171.0581	51
173.1323	258
174.138	20
175.1492	109
177.1636	155
179.1444	18
181.1249	14
187.1483	42
189.163	103
190.1661	13
191.1804	58
192.1434	7
195.1399	28
199.1482	48
203.1433	33
205.1616	17
207.1404	59
209.155	38
213.1678	13
217.1559	12
221.1545	116
227.1794	13
233.0875	6
235.1698	98
236.1707	14
241.1947	17
249.1863	50
259.2349	11
263.0796	7
269.2265	61
287.237	124
288.2406	28
305.2476	999
306.2515	237
307.2541	22
323.2587	154
324.2622	30
337.1683	80
340.1671	9
341.2698	22
343.1964	39
350.1548	18
358.1602	18
359.167	78
361.2008	92
