Mass spectrum: Riboflavin; LC-ESI-QTOF; MS2; CE: 15 / 50;  [M-H]-
Name: Riboflavin
Class: NA
Formula: C17H20N4O6
Exact mass: 376.1383
SMILES: CC1=CC2=C(C=C1C)N(C3=NC(=O)NC(=O)C3=N2)CC(C(C(CO)O)O)O
InChI: InChI=1S/C17H20N4O6/c1-7-3-9-10(4-8(7)2)21(5-11(23)14(25)12(24)6-22)15-13(18-9)16(26)20-17(27)19-15/h3-4,11-12,14,22-25H,5-6H2,1-2H3,(H,20,26,27)
Instrument: impact II
Instrument type: LC-ESI-QTOF
Ms type: MS2
Ion mode: NEGATIVE
Ionization: ESI
Collision energy: 15 / 50
Column name: Acquity CSHC18
Retention time: 0.647 min
Base peak: 375.1252
Precursor m/z: 375.1252
Precursor type: [M-H]-
m/z	relative intensity
255.5872	999
