Mass spectrum: AMINOADIPATE; LC-ESI-QTOF; MS2; CE: 20;  [M-H]-
Name: AMINOADIPATE
Class: NA
Formula: C6H11NO4
Exact mass: 161.06881
SMILES: NC(CCCC(O)=O)C(O)=O
InChI: InChI=1S/C6H11NO4/c7-4(6(10)11)2-1-3-5(8)9/h4H,1-3,7H2,(H,8,9)(H,10,11)
Instrument: Agilent 6530Â Q-TOF LC/MS
Instrument type: LC-ESI-QTOF
Ms type: MS2
Ion mode: NEGATIVE
Ionization: ESI
Collision energy: 20
Column name: NA
Retention time: 0.200 min
Base peak: 160.06551
Precursor m/z: 160.06551
Precursor type: [M-H]-
Precursor intensity: 129
m/z	relative intensity
41.0035	116
42.0363	124
44.9999	130
52.0231	136
59.0166	152
60.9911	163
68.057	183
70.0464	248
86.0258	264
98.0769	445
116.089	544
142.0649	999
160.0583	116
