Mass spectrum: trans-Cinnamic acid; LC-ESI-ITFT; MS2; CE: 10;  [M+H]+
Name: trans-Cinnamic acid
Class: Phenylpropanoids and polyketides; Cinnamic acids and derivatives; Cinnamic acids
Formula: C9H8O2
Exact mass: 148.05243
SMILES: OC(=O)\C=C\C1=CC=CC=C1
InChI: InChI=1S/C9H8O2/c10-9(11)7-6-8-4-2-1-3-5-8/h1-7H,(H,10,11)/b7-6+
Instrument: Thermo Scientific Q-Exactive Focus
Instrument type: LC-ESI-ITFT
Ms type: MS2
Ion mode: POSITIVE
Ionization: ESI
Collision energy: 10
Column name: Acquity CSHC18
Retention time: 0.348 min
Base peak: 149.05971
Precursor m/z: 149.05971
Precursor type: [M+H]+
m/z	relative intensity
103.0546	190
107.0859	6
121.0286	17
131.0494	999
149.0234	97
149.0346	36
149.0598	40
149.071	8
149.0962	17
149.1326	7
