Mass spectrum: NORSPERMIDINE; LC-ESI-QTOF; MS2; CE: 20;  [M+H]+
Name: NORSPERMIDINE
Class: NA
Formula: C6H17N3
Exact mass: 131.14225
SMILES: NCCCNCCCN
InChI: InChI=1S/C6H17N3/c7-3-1-5-9-6-2-4-8/h9H,1-8H2
Instrument: Agilent 6530Â Q-TOF LC/MS
Instrument type: LC-ESI-QTOF
Ms type: MS2
Ion mode: POSITIVE
Ionization: ESI
Collision energy: 20
Column name: NA
Retention time: 0.200 min
Base peak: 132.14751
Precursor m/z: 132.14751
Precursor type: [M+H]+
Precursor intensity: 18.5
m/z	relative intensity
41.0634	26
42.1011	28
43.0611	29
44.217	30
44.6072	30
45.0524	31
55.0485	33
56.0609	34
58.5467	35
62.9457	41
68.0514	41
70.3975	43
70.8457	58
71.0723	62
72.0782	156
72.49	163
75.1141	214
84.0789	226
86.0957	262
87.0929	616
90.8962	795
98.5758	807
99.2763	811
103.9562	909
115.1581	976
132.1678	999
