Mass spectrum: 4,7-Dihydroxycoumarin; LC-ESI-QTOF; MS2; CE: 15.00;  [M+H]+
Name: 4,7-Dihydroxycoumarin
Class: NA
Formula: C9H6O4
Exact mass: 178.0266
SMILES: C1=CC2=C(C=C1O)OC(=O)C=C2O
InChI: InChI=1S/C9H6O4/c10-5-1-2-6-7(11)4-9(12)13-8(6)3-5/h1-4,10-11H
Instrument: Bruker MicrOTOF-Q
Instrument type: LC-ESI-QTOF
Ms type: MS2
Ion mode: POSITIVE
Ionization: ESI
Collision energy: 15.00
Column name: Acquity CSHC18
Retention time: NA
Base peak: 179.0339
Precursor m/z: 179.0339
Precursor type: [M+H]+
m/z	relative intensity
135.0429	22
137.0223	28
138.0245	95
179.0337	368
180.037	999
