Mass spectrum: Glycocholic acid; LC-ESI-ITFT; MS2; CE: 100;  [M+H]+
Name: Glycocholic acid
Class: Lipids and lipid-like molecules; Steroids and steroid derivatives; Bile acids, alcohols and derivatives
Formula: C26H43NO6
Exact mass: 465.30904
SMILES: CC(CCC(=O)NCC(O)=O)C1CCC2C3C(O)CC4CC(O)CCC4(C)C3CC(O)C12C
InChI: InChI=1S/C26H43NO6/c1-14(4-7-22(31)27-13-23(32)33)17-5-6-18-24-19(12-21(30)26(17,18)3)25(2)9-8-16(28)10-15(25)11-20(24)29/h14-21,24,28-30H,4-13H2,1-3H3,(H,27,31)(H,32,33)
Instrument: Thermo Scientific Q-Exactive Focus
Instrument type: LC-ESI-ITFT
Ms type: MS2
Ion mode: POSITIVE
Ionization: ESI
Collision energy: 100
Column name: Acquity CSHC18
Retention time: 2.571 min
Base peak: 466.31631
Precursor m/z: 466.31631
Precursor type: [M+H]+
m/z	relative intensity
55.0547	402
67.0546	346
79.0546	541
91.0545	999
95.0494	254
105.07	623
128.062	407
129.0698	357
141.0697	380
142.0775	311
