Mass spectrum: Asparagine; LC-ESI-QTOF; MS2; CE: 15 / 50;  [M+H]+
Name: Asparagine
Class: NA
Formula: C4H8N2O3
Exact mass: 132.05349
SMILES: C(C(C(=O)O)N)C(=O)N
InChI: InChI=1S/C4H8N2O3/c5-2(4(8)9)1-3(6)7/h2H,1,5H2,(H2,6,7)(H,8,9)
Instrument: impact II
Instrument type: LC-ESI-QTOF
Ms type: MS2
Ion mode: POSITIVE
Ionization: ESI
Collision energy: 15 / 50
Column name: Acquity CSHC18
Retention time: 0.536 min
Base peak: 133.06080
Precursor m/z: 133.06080
Precursor type: [M+H]+
m/z	relative intensity
46.0292	215
74.0242	999
87.0556	427
88.0396	106
116.0341	325
133.0605	265
