Mass spectrum: Glycerol; LC-ESI-ITFT; MS2; CE: 100;  [M-H]-
Name: Glycerol
Class: Organic oxygen compounds; Organooxygen compounds; Carbohydrates and carbohydrate conjugates
Formula: C3H8O3
Exact mass: 92.04734
SMILES: OCC(O)CO
InChI: InChI=1S/C3H8O3/c4-1-3(6)2-5/h3-6H,1-2H2
Instrument: Thermo Scientific Q-Exactive Focus
Instrument type: LC-ESI-ITFT
Ms type: MS2
Ion mode: NEGATIVE
Ionization: ESI
Collision energy: 100
Column name: Acquity CSHC18
Retention time: 2.054 min
Base peak: 91.04007
Precursor m/z: 91.04007
Precursor type: [M-H]-
m/z	relative intensity
68.9214	843
71.834	999
78.051	916
90.543	916
94.8066	832
96.0634	862
101.3461	859
102.2705	821
105.6756	842
109.4337	883
