Mass spectrum: 1-METHYLADENOSINE; LC-ESI-QTOF; MS2; CE: 40;  [M-H]-
Name: 1-METHYLADENOSINE
Class: NA
Formula: C11H15N5O4
Exact mass: 281.11240
SMILES: CN1C=NC2=C(N=CN2[C@@H]2O[C@H](CO)[C@@H](O)[C@H]2O)C1=N
InChI: InChI=1S/C11H15N5O4/c1-15-3-14-10-6(9(15)12)13-4-16(10)11-8(19)7(18)5(2-17)20-11/h3-5,7-8,11-12,17-19H,2H2,1H3/t5-,7-,8-,11-/m1/s1
Instrument: Agilent 6530Â Q-TOF LC/MS
Instrument type: LC-ESI-QTOF
Ms type: MS2
Ion mode: NEGATIVE
Ionization: ESI
Collision energy: 40
Column name: NA
Retention time: 0.200 min
Base peak: 280.11099
Precursor m/z: 280.11099
Precursor type: [M-H]-
m/z	relative intensity
65.0114	134
77.9679	143
79.0272	155
90.0106	159
92.0266	160
106.0329	165
107.0421	191
132.0496	361
133.0598	534
142.249	867
148.08	999
