Mass spectrum: Methionine sulfoxide; ESI-TOF; MS2; CE: 6.0000000;  [M+H]+
Name: Methionine sulfoxide
Class: NA
Formula: C5H11NO3S
Exact mass: 165.04596
SMILES: CS(=O)CCC(N)C(O)=O
InChI: InChI=1S/C5H11NO3S/c1-10(9)3-2-4(6)5(7)8/h4H,2-3,6H2,1H3,(H,7,8)
Instrument: waters xevo g2 TOF
Instrument type: ESI-TOF
Ms type: MS2
Ion mode: POSITIVE
Ionization: ESI
Collision energy: 6.0000000
Column name: Acquity CSHC18
Retention time: 0.544 min
Base peak: 166.05396
Precursor m/z: 166.05396
Precursor type: [M+H]+
m/z	relative intensity
74.0247	24
75.0276	30
97.9691	34
102.0556	39
119.976	1
129.9593	1
131.0167	16
131.9511	7
148.044	8
149.0275	653
150.0299	42
151.0248	35
166.0539	999
167.0569	73
