Mass spectrum: DL-Phenylalanine; LC-ESI-ITFT; MS2; CE: 45eV;  [M+H]+
Name: DL-Phenylalanine
Class: aminoacid
Formula: C9H11NO2
Exact mass: 165.0790
SMILES: C1=CC=C(C=C1)CC(C(=O)O)N
InChI: InChI=1S/C9H11NO2/c10-8(9(11)12)6-7-4-2-1-3-5-7/h1-5,8H,6,10H2,(H,11,12)
Instrument: LTQ Orbitrap XL, Thermo Scientfic; Dionex Ultimate 300
Instrument type: LC-ESI-ITFT
Ms type: MS2
Ion mode: POSITIVE
Ionization: ESI
Collision energy: 45eV
Column name: Alltima C18
Retention time: 7.38 min
Base peak: 166.0854
Precursor m/z: 166.0854
Precursor type: [M+H]+
m/z	relative intensity
106.9248	768
137.9553	999
