Mass spectrum: Stearic acid; LC-ESI-QTOF; MS2; CE: 15.00;  [M+H]+
Name: Stearic acid
Class: NA
Formula: C18H36O2
Exact mass: 284.2715
SMILES: CCCCCCCCCCCCCCCCCC(=O)O
InChI: InChI=1S/C18H36O2/c1-2-3-4-5-6-7-8-9-10-11-12-13-14-15-16-17-18(19)20/h2-17H2,1H3,(H,19,20)
Instrument: Bruker MicrOTOF-Q
Instrument type: LC-ESI-QTOF
Ms type: MS2
Ion mode: POSITIVE
Ionization: ESI
Collision energy: 15.00
Column name: Acquity CSHC18
Retention time: NA
Base peak: 285.2788
Precursor m/z: 285.2788
Precursor type: [M+H]+
m/z	relative intensity
135.1173	77
145.1211	94
160.1687	189
163.1491	126
167.14	99
173.1511	138
174.1525	43
177.1595	90
181.1575	201
187.1667	137
201.1907	82
215.2	306
215.8861	37
229.2139	129
243.2304	46
265.2579	80
284.2195	68
284.3101	335
285.2788	999
