Mass spectrum: INOSINE-MONOPHOSPHATE; LC-ESI-QTOF; MS2; CE: 10;  [M+H]+
Name: INOSINE-MONOPHOSPHATE
Class: NA
Formula: C10H13N4O8P
Exact mass: 348.04710
SMILES: O[C@@H]1[C@@H](COP(O)(O)=O)O[C@H]([C@@H]1O)N1C=NC2=C1N=CNC2=O
InChI: InChI=1S/C10H13N4O8P/c15-6-4(1-21-23(18,19)20)22-10(7(6)16)14-3-13-5-8(14)11-2-12-9(5)17/h2-4,6-7,10,15-16H,1H2,(H,11,12,17)(H2,18,19,20)/t4-,6-,7-,10-/m1/s1
Instrument: Agilent 6530Â Q-TOF LC/MS
Instrument type: LC-ESI-QTOF
Ms type: MS2
Ion mode: POSITIVE
Ionization: ESI
Collision energy: 10
Column name: NA
Retention time: 0.200 min
Base peak: 349.05528
Precursor m/z: 349.05528
Precursor type: [M+H]+
Precursor intensity: 182.5
m/z	relative intensity
45.0335	46
45.0373	48
45.0412	41
87.9513	44
89.0512	45
89.0566	48
89.062	41
94.0352	50
94.0407	52
94.0463	44
97.015	62
97.0207	101
97.0263	103
97.032	86
97.0376	65
97.0432	48
137.0221	118
137.0288	524
137.0356	923
137.0423	999
137.049	850
137.0557	691
137.0624	549
137.0691	438
137.0758	358
137.0825	272
137.0892	193
137.0959	139
137.1027	98
137.1094	68
137.1161	51
137.1228	44
244.1373	48
244.1462	51
244.1552	42
348.2526	41
349.173	54
349.1837	68
349.1944	57
