Mass spectrum: (S)-Scoulerine; ESI-QTOF; MS2; CE: -10, -35, -60;  [M-H]-
Name: (S)-Scoulerine
Class: Benzylisoquinoline (subclass:Benzophenanthridine) alkaloid
Formula: C19H21NO4
Exact mass: 327.1471
SMILES: COC1=C(C2=C(CC3C4=CC(=C(C=C4CCN3C2)OC)O)C=C1)O
InChI: InChI=1S/C19H21NO4/c1-23-17-4-3-11-7-15-13-9-16(21)18(24-2)8-12(13)5-6-20(15)10-14(11)19(17)22/h3-4,8-9,15,21-22H,5-7,10H2,1-2H3
Instrument: AB Sciex TripleToF 5500
Instrument type: ESI-QTOF
Ms type: MS2
Ion mode: NEGATIVE
Ionization: ESI
Collision energy: -10, -35, -60
Column name: Acquity CSHC18
Retention time: 4.760 min
Base peak: 326.1470
Precursor m/z: 326.1470
Precursor type: [M-H]-
Precursor intensity: 1869.69
m/z	relative intensity
325.1096	286
326.1386	999
327.1439	368
