Mass spectrum: Physostigmine; LC-ESI-QTOF; MS2; CE: 35.00;  [M-C5H10N2O+H]+
Name: Physostigmine
Class: NA
Formula: C15H21N3O2
Exact mass: 275.1634
SMILES: CC12CCN(C1N(C3=C2C=C(C=C3)OC(=O)NC)C)C
InChI: InChI=1S/C15H21N3O2/c1-15-7-8-17(3)13(15)18(4)12-6-5-10(9-11(12)15)20-14(19)16-2/h5-6,9,13H,7-8H2,1-4H3,(H,16,19)
Instrument: Bruker MicrOTOF-Q
Instrument type: LC-ESI-QTOF
Ms type: MS2
Ion mode: POSITIVE
Ionization: ESI
Collision energy: 35.00
Column name: Acquity CSHC18
Retention time: NA
Base peak: 162.0912
Precursor m/z: 162.0912
Precursor type: [M-C5H10N2O+H]+
m/z	relative intensity
116.0464	17
117.056	162
118.0636	206
119.0668	22
128.0486	63
129.0487	13
130.0623	32
131.0652	14
132.044	45
133.0443	6
142.0662	12
143.0696	10
144.0797	33
145.0544	31
145.915	5
146.0593	999
147.0645	195
148.0658	9
150.1611	8
159.0627	10
160.075	48
161.0792	11
