Mass spectrum: Ergosterol; APCI-ITFT; MS2; CE: 35 CID;  [M+H]+
Name: Ergosterol
Class: NA
Formula: C28H44O
Exact mass: 396.33922
SMILES: CC(C)C(C)C=CC(C)C1CCC2C1(CCC3C2=CC=C4C3(CCC(C4)O)C)C
InChI: InChI=1S/C28H44O/c1-18(2)19(3)7-8-20(4)24-11-12-25-23-10-9-21-17-22(29)13-15-27(21,5)26(23)14-16-28(24,25)6/h7-10,18-20,22,24-26,29H,11-17H2,1-6H3
Instrument: Orbitrap Elite
Instrument type: APCI-ITFT
Ms type: MS2
Ion mode: POSITIVE
Ionization: APCI
Collision energy: 35 CID
Column name: Acquity CSHC18
Retention time: 0.114 min
Base peak: 397.34650
Precursor m/z: 397.34650
Precursor type: [M+H]+
Precursor intensity: 34300240
m/z	relative intensity
83.0833	19
96.3347	36
109.4291	43
122.771	45
135.7746	52
148.3659	54
162.1305	54
175.0379	55
186.1381	55
200.5938	64
213.848	66
228.5323	69
241.7214	73
254.6457	76
269.9919	79
283.5667	80
294.2325	83
298.7543	86
310.8795	96
325.0121	107
338.5352	108
363.8044	119
368.8061	176
378.8286	744
396.9678	999
