Mass spectrum: N-ACETYLPHENYLALANINE; LC-ESI-QTOF; MS2; CE: 10;  [M-H]-
Name: N-ACETYLPHENYLALANINE
Class: NA
Formula: C11H13NO3
Exact mass: 207.08954
SMILES: CC(=O)N[C@@H](CC1=CC=CC=C1)C(O)=O
InChI: InChI=1S/C11H13NO3/c1-8(13)12-10(11(14)15)7-9-5-3-2-4-6-9/h2-6,10H,7H2,1H3,(H,12,13)(H,14,15)/t10-/m0/s1
Instrument: Agilent 6530Â Q-TOF LC/MS
Instrument type: LC-ESI-QTOF
Ms type: MS2
Ion mode: NEGATIVE
Ionization: ESI
Collision energy: 10
Column name: NA
Retention time: 0.200 min
Base peak: 206.08547
Precursor m/z: 206.08547
Precursor type: [M-H]-
Precursor intensity: 189
m/z	relative intensity
42.0028	192
58.0442	216
70.031	267
72.0123	392
91.069	477
103.0661	523
147.0599	743
164.0984	773
206.1061	999
