Mass spectrum: ABSCISIC ACID; LC-ESI-QTOF; MS2; CE: -10, -35, -60V;  [M-H]-
Name: ABSCISIC ACID
Class: NA
Formula: C15H20O4
Exact mass: 264.1362
SMILES: CC1=CC(=O)CC(C1(C=CC(=CC(=O)O)C)O)(C)C
InChI: InChI=1S/C15H20O4/c1-10(7-13(17)18)5-6-15(19)11(2)8-12(16)9-14(15,3)4/h5-8,19H,9H2,1-4H3,(H,17,18)
Instrument: TripleToF 5600; Sciex
Instrument type: LC-ESI-QTOF
Ms type: MS2
Ion mode: NEGATIVE
Ionization: ESI
Collision energy: -10, -35, -60V
Column name: Acquity CSHC18
Retention time: 12.935 min
Base peak: 263.1280
Precursor m/z: 263.1280
Precursor type: [M-H]-
Precursor intensity: 292829.8
m/z	relative intensity
79.0544	33
107.0474	21
108.0224	35
109.0298	56
110.0389	21
111.0438	85
117.0709	21
119.0866	59
121.0667	46
122.0363	333
123.0803	29
124.0533	33
125.0616	207
135.0839	25
136.0537	296
137.06	100
138.07	67
139.0754	236
145.0671	31
147.0821	23
148.0545	198
149.0593	90
151.0758	439
152.0839	500
153.0918	999
159.1185	89
161.0959	98
163.0783	203
164.0822	64
171.0812	76
173.0608	130
174.0707	27
185.0987	90
186.1027	72
187.0765	39
188.0838	312
189.0939	242
201.129	400
203.1079	569
204.1151	779
219.1395	831
248.1087	31
263.1323	426
