Mass spectrum: 16,16-dimethyl Prostaglandin E2; ESI-TOF; MS2; CE: 6.0000000;  [M+H]+
Name: 16,16-dimethyl Prostaglandin E2
Class: NA
Formula: C22H36O5
Exact mass: 380.25627
SMILES: O=C1[C@H](C/C=C\CCCC(O)=O)[C@@H](/C=C/[C@@H](O)C(C)(C)CCCC)[C@H](O)C1
InChI: InChI=1S/C22H36O5/c1-4-5-14-22(2,3)20(25)13-12-17-16(18(23)15-19(17)24)10-8-6-7-9-11-21(26)27/h6,8,12-13,16-17,19-20,24-25H,4-5,7,9-11,14-15H2,1-3H3,(H,26,27)/b8-6-,13-12+/t16-,17-,19-,20-/m1/s1
Instrument: waters xevo g2 TOF
Instrument type: ESI-TOF
Ms type: MS2
Ion mode: POSITIVE
Ionization: ESI
Collision energy: 6.0000000
Column name: Acquity CSHC18
Retention time: 4.044 min
Base peak: 381.26427
Precursor m/z: 381.26427
Precursor type: [M+H]+
m/z	relative intensity
119.0692	6
131.0868	2
149.096	6
159.1187	2
163.1129	16
167.0956	4
179.143	21
181.1278	16
187.112	14
189.093	19
191.1081	8
195.1402	5
201.1092	5
207.101	59
208.1034	3
209.1242	2
213.1634	2
215.1078	56
217.1237	7
219.1366	12
229.1235	29
233.1153	97
237.1118	6
243.1738	28
245.155	3
251.1278	35
254.0838	3
265.1418	7
273.2187	10
283.2089	8
289.1792	5
291.2303	34
292.237	5
293.2429	7
301.2155	30
309.2224	47
310.2249	10
317.2472	20
319.2281	36
327.2326	707
328.2349	166
329.2376	19
340.1732	5
345.2432	999
346.2468	232
347.25	31
355.2451	25
363.254	632
364.2568	157
365.2632	17
379.1479	20
382.7278	96
383.2385	23
