Mass spectrum: CYSTATHIONINE; LC-ESI-QFT; MS2; CE: 30eV;  [M+H]+
Name: CYSTATHIONINE
Class: NA
Formula: C7H14N2O4S
Exact mass: 222.06743
SMILES: N[C@@H](CCSC[C@H](N)C(O)=O)C(O)=O
InChI: InChI=1S/C7H14N2O4S/c8-4(6(10)11)1-2-14-3-5(9)7(12)13/h4-5H,1-3,8-9H2,(H,10,11)(H,12,13)/t4-,5-/m0/s1
Instrument: Q-Exactive Orbitrap, Thermo Scientfic; Ultimate 3000 HPLC, Thermo Scientfic
Instrument type: LC-ESI-QFT
Ms type: MS2
Ion mode: POSITIVE
Ionization: ESI
Collision energy: 30eV
Column name: Acquity CSHC18
Retention time: 0.582 min
Base peak: 223.0747
Precursor m/z: 223.0747
Precursor type: [M+H]+
Precursor intensity: 190
m/z	relative intensity
50.246	2
52.1794	3
56.0489	7
56.0503	221
61.0114	3
61.6442	3
73.9974	3
78.247	3
79.9864	3
88.0222	999
88.04	25
89.0256	13
90.0379	4
90.7182	3
102.0556	20
129.2176	4
135.0265	9
135.0308	50
136.043	16
138.9142	4
144.5053	3
155.9751	13
158.4232	4
160.0429	26
165.0551	7
170.5165	3
177.0694	23
177.9566	5
200.9724	8
206.0488	7
223.0752	315
224.129	15
225.0434	34
