Mass spectrum: 7-methylthioheptyl glucosinolate; LC-ESI-QTOF; MS2; CE: 35.00;  [M-O3S+H]+
Name: 7-methylthioheptyl glucosinolate
Class: NA
Formula: C15H29NO9S3
Exact mass: 463.1004
SMILES: CSCCCCCCCC(=NOS(=O)(=O)O)SC1C(C(C(C(O1)CO)O)O)O
InChI: InChI=1S/C15H29NO9S3/c1-26-8-6-4-2-3-5-7-11(16-25-28(21,22)23)27-15-14(20)13(19)12(18)10(9-17)24-15/h10,12-15,17-20H,2-9H2,1H3,(H,21,22,23)
Instrument: Bruker MicrOTOF-Q
Instrument type: LC-ESI-QTOF
Ms type: MS2
Ion mode: POSITIVE
Ionization: ESI
Collision energy: 35.00
Column name: Acquity CSHC18
Retention time: NA
Base peak: 384.1507
Precursor m/z: 384.1507
Precursor type: [M-O3S+H]+
m/z	relative intensity
122.1001	219
141.0742	999
174.0992	224
188.1033	239
217.0409	494
218.0502	287
