Mass spectrum: O-acyl sugar AS5; LC-ESI-QTOF; MS2; CE: 22.5eV; [M+Na]+
Name: O-acyl sugar AS5
Class: O-acyl sugar
Formula: C29H50O14
Exact mass: 622.3201
SMILES: CC(CCC)C(=O)O[C@H]1[C@H](O[C@H](CO)[C@@H](OC(=O)C(C)CCC)[C@@H]1OC(=O)C(C)CC)O[C@]1(CO)O[C@H](CO)[C@@H](O)[C@@H]1O
InChI: InChI=1S/C29H50O14/c1-7-10-16(5)26(36)39-21-19(13-31)38-28(43-29(14-32)24(34)20(33)18(12-30)42-29)23(41-27(37)17(6)11-8-2)22(21)40-25(35)15(4)9-3/h15-24,28,30-34H,7-14H2,1-6H3/t15?,16?,17?,18-,19-,20-,21-,22+,23-,24+,28-,29+/m1/s1
Instrument: Microtof-q MS
Instrument type: LC-ESI-QTOF
Ms type: MS2
Ion mode: POSITIVE
Ionization: ESI
Collision energy: 22.5eV
Column name: Acquity CSH C18 column (particle size 1.7 μm, column length 2.1 × 50 mm) (Waters)
Retention time: NA
Base peak: 645.3117
Precursor m/z: 645.3117
Precursor type: [M+Na]+
m/z	relative intensity
185.0412	34
367.1711	95
381.1848	23
483.2553	999
645.3117	202
