Mass spectrum: acyl sugar_S4:20 (5,5,5,5); LC-ESI-ITFT; MS2; CE: 35 NCE;  [M+FA-H]-
Name: acyl sugar_S4:20 (5,5,5,5)
Class: acyl sugar
Formula: C32H54O15
Exact mass: 678.3463
SMILES: CCC(C)C(=O)OC1C(C(OC(C1OC(=O)CC(C)C)CO)OC2(C(C(C(O2)COC(=O)CC(C)C)O)OC(=O)CC(C)C)CO)O
InChI: InChI=1S/C32H54O15/c1-9-19(8)30(40)45-28-26(39)31(42-20(13-33)27(28)43-23(36)11-17(4)5)47-32(15-34)29(44-24(37)12-18(6)7)25(38)21(46-32)14-41-22(35)10-16(2)3/h16-21,25-29,31,33-34,38-39H,9-15H2,1-8H3
Instrument: LTQ Orbitrap XL, Thermo Scientfic; Aquity (U)HPLC, Waters
Instrument type: LC-ESI-ITFT
Ms type: MS2
Ion mode: NEGATIVE
Ionization: ESI
Collision energy: 35 NCE
Column name: Acquity CSHC18
Retention time: 33.555 min
Base peak: 723.3436
Precursor m/z: 723.3436
Precursor type: [M+FA-H]-
Precursor intensity: 1042250
m/z	relative intensity
341.1084	6
407.1549	75
426.1682	28
504.623	7
509.223	999
525.6853	67
575.0864	22
592.6547	36
594.2835	525
670.2981	5
677.3369	579
