Mass spectrum: Glucose 1,6-bisphosphate; LC-ESI-QTOF; MS2; CE: -10, -35, -60V;  [M-H]-
Name: Glucose 1,6-bisphosphate
Class: NA
Formula: C6H14O12P2
Exact mass: 339.9960
SMILES: C(C1C(C(C(C(O1)OP(=O)(O)O)O)O)O)OP(=O)(O)O
InChI: InChI=1S/C6H14O12P2/c7-3-2(1-16-19(10,11)12)17-6(5(9)4(3)8)18-20(13,14)15/h2-9H,1H2,(H2,10,11,12)(H2,13,14,15)
Instrument: TripleToF 5600; Sciex
Instrument type: LC-ESI-QTOF
Ms type: MS2
Ion mode: NEGATIVE
Ionization: ESI
Collision energy: -10, -35, -60V
Column name: Acquity CSHC18
Retention time: 14.344 min
Base peak: 338.9883
Precursor m/z: 338.9883
Precursor type: [M-H]-
Precursor intensity: 8530.94
m/z	relative intensity
78.9583	321
96.9689	136
100.0779	36
142.1263	83
159.1055	28
223.0137	23
227.1794	90
240.1594	124
241.0133	628
242.0312	60
242.1783	272
324.2449	44
329.2102	41
338.1679	87
338.9887	999
