Mass spectrum: Catharanthine; ESI-QTOF; MS2; CE: 30 eV;  [M+H]+
Name: Catharanthine
Class: NA
Formula: C21H24N2O2
Exact mass: 336.1838
SMILES: CCC1=CC2(CC3(C4=C(CCN(C2)C13[H])C5=CC=CC=C5N4)C(=O)OC)[H]
InChI: InChI=1S/C21H24N2O2/c1-3-14-10-13-11-21(20(24)25-2)18-16(8-9-23(12-13)19(14)21)15-6-4-5-7-17(15)22-18/h4-7,10,13,19,22H,3,8-9,11-12H2,1-2H3
Instrument: Synapt (HDMS 1st gen)
Instrument type: ESI-QTOF
Ms type: MS2
Ion mode: POSITIVE
Ionization: ESI
Collision energy: 30 eV
Column name: Acquity CSHC18
Retention time: 13.149 min
Base peak: 337.1924
Precursor m/z: 337.1924
Precursor type: [M+H]+
Precursor intensity: 28167.49
m/z	relative intensity
93.0697	25
143.0726	42
144.0809	60
145.0864	83
165.0916	156
173.1078	823
337.1934	999
