Mass spectrum: Propranolol; ESI-TOF; MS2; CE: 0.6458333;  [M+H]+
Name: Propranolol
Class: NA
Formula: C16H21NO2
Exact mass: 259.15723
SMILES: CC(C)NCC(O)COC1=CC=CC2=CC=CC=C12
InChI: InChI=1S/C16H21NO2/c1-12(2)17-10-14(18)11-19-16-9-5-7-13-6-3-4-8-15(13)16/h3-9,12,14,17-18H,10-11H2,1-2H3
Instrument: waters xevo g2 TOF
Instrument type: ESI-TOF
Ms type: MS2
Ion mode: POSITIVE
Ionization: ESI
Collision energy: 0.6458333
Column name: Acquity CSHC18
Retention time: 2.204 min
Base peak: 260.16523
Precursor m/z: 260.16523
Precursor type: [M+H]+
m/z	relative intensity
55.0551	2
56.051	29
58.0666	16
72.082	198
73.0852	10
74.061	243
75.0645	17
77.0396	2
86.0971	70
87.1002	7
90.0564	12
98.097	526
99.1004	42
100.112	48
101.0886	4
102.092	4
112.0488	4
115.0655	29
116.1077	794
117.111	98
118.1132	4
128.0623	30
129.0561	196
130.074	21
132.1026	26
137.0607	2
141.075	77
142.0741	13
143.0656	17
144.0561	7
145.066	55
146.069	10
152.0632	2
153.0704	83
154.0768	49
155.078	167
156.0741	91
157.0654	376
158.0687	45
165.0705	232
166.0738	33
168.0572	52
169.063	10
171.0805	14
173.0813	6
181.0654	11
182.0725	5
183.081	613
184.0841	84
185.09	15
200.1061	5
218.1164	62
219.12	9
223.1158	2
225.1273	5
242.1549	12
260.1655	999
261.1687	316
