Mass spectrum: 8-iso Prostaglandin E1; ESI-TOF; MS2; CE: 6.0000000;  [M+H]+
Name: 8-iso Prostaglandin E1
Class: NA
Formula: C20H34O5
Exact mass: 354.24062
SMILES: CCCCC[C@H](O)\C=C\[C@H]1[C@H](O)CC(=O)[C@H]1CCCCCCC(O)=O
InChI: InChI=1S/C20H34O5/c1-2-3-6-9-15(21)12-13-17-16(18(22)14-19(17)23)10-7-4-5-8-11-20(24)25/h12-13,15-17,19,21,23H,2-11,14H2,1H3,(H,24,25)/b13-12+/t15-,16-,17+,19+/m0/s1
Instrument: waters xevo g2 TOF
Instrument type: ESI-TOF
Ms type: MS2
Ion mode: POSITIVE
Ionization: ESI
Collision energy: 6.0000000
Column name: Acquity CSHC18
Retention time: 3.570 min
Base peak: 355.24862
Precursor m/z: 355.24862
Precursor type: [M+H]+
m/z	relative intensity
159.1183	3
163.1113	9
188.097	17
191.1077	18
193.1228	20
203.1442	21
219.1402	4
253.0765	7
265.2161	87
273.2209	34
274.2225	5
275.1993	48
276.2041	4
278.2194	11
283.2043	42
284.2092	5
289.215	29
290.2161	4
291.2306	51
301.2167	999
302.2196	213
304.2985	15
317.2116	5
319.2272	706
320.1888	64
337.2377	661
338.2412	145
356.2109	65
356.7147	22
357.1917	9
