Mass spectrum: Nicotianoside II; LC-ESI-QTOF; MS2; CE: 35eV;  [M+NH4]+
Name: Nicotianoside II
Class: NA
Formula: C44H68O22
Exact mass: 948.4202
SMILES: CC1C(C(C(C(O1)OC2C(OC(C(C2O)O)OC(C)(CCC=C(C)CCC=C(C)CCC=C(C)COC3C(C(C(C(O3)COC(=O)CC(=O)O)O)O)O)C=C)COC(=O)CC(=O)O)O)O)O
InChI: InChI=1S/C44H68O22/c1-7-44(6,66-43-39(58)36(55)40(27(64-43)21-60-31(50)18-29(47)48)65-42-38(57)34(53)32(51)25(5)62-42)16-10-15-23(3)12-8-11-22(2)13-9-14-24(4)19-61-41-37(56)35(54)33(52)26(63-41)20-59-30(49)17-28(45)46/h7,11,14-15,25-27,32-43,51-58H,1,8-10,12-13,16-21H2,2-6H3,(H,45,46)(H,47,48)
Instrument: Impact II qTOF
Instrument type: LC-ESI-QTOF
Ms type: MS2
Ion mode: POSITIVE
Ionization: ESI
Collision energy: 35eV
Column name: Acquity CSH C18 column (particle size 1.7 μm, column length 2.1 × 50 mm) (Waters)
Retention time: 7.34 min
Base peak: 966.4568
Precursor m/z: 966.4568
Precursor type: [M+NH4]+
m/z	relative intensity
149.1325	78
161.1316	72
163.1477	88
177.1636	70
189.1639	56
203.1793	68
213.0399	97
215.1793	162
231.051	224
237.0764	39
249.0609	245
255.0865	44
271.2421	999
272.2457	192
289.252	73
341.0873	73
359.0969	170
377.1078	116
395.1183	239
396.1206	36
399.2882	37
417.2992	106
461.0936	36
479.1042	63
497.1128	45
519.2949	44
554.3318	64
