Mass spectrum: Tagitinin A, 1ß-hydroxy; LC-ESI-ITFT; MS2; CE: 50eV;  [M+H]+
Name: Tagitinin A, 1ß-hydroxy
Class: Sesquiterpenelactone; Germacrolide
Formula: C19H28O7
Exact mass: 368.1835
SMILES: CC(C)C(=O)O[C@@H]3C[C@@]1(C)O[C@@](O)(C[C@H]1O)[C@@H](C)C[C@H]2OC(=O)C(=C)[C@@H]23
InChI: InChI=1S/C19H28O7/c1-9(2)16(21)25-13-7-18(5)14(20)8-19(23,26-18)10(3)6-12-15(13)11(4)17(22)24-12/h9-10,12-15,20,23H,4,6-8H2,1-3,5H3/t10-,12+,13+,14+,15-,18+,19-/m0/s1
Instrument: Q Exactive Plus, ThermoFisher Scientific
Instrument type: LC-ESI-ITFT
Ms type: MS2
Ion mode: POSITIVE
Ionization: ESI
Collision energy: 50eV
Column name: Acquity CSHC18
Retention time: 5.878 min
Base peak: 369.1906
Precursor m/z: 369.1906
Precursor type: [M+H]+
Precursor intensity: 1105843000
m/z	relative intensity
68.6914	43
69.8742	5
85.0652	5
97.0651	6
99.044	10
113.0596	10
113.4162	5
147.0792	9
157.1022	7
167.068	8
171.1176	29
175.0743	7
175.1117	13
189.0922	11
189.1267	9
190.4834	6
193.0855	7
199.1114	92
201.0926	8
201.1277	7
203.1066	40
211.0956	12
217.1236	139
219.1006	21
221.1168	10
227.1074	96
235.1341	52
245.1157	333
263.1289	245
264.0665	5
267.9924	5
281.1397	149
351.1791	11
369.1893	999
