Mass spectrum: Tirotundin; LC-ESI-ITFT; MS2; CE: 50eV;  [M+H]+
Name: Tirotundin
Class: Sesquiterpenelactone; Heliangolide
Formula: C19H28O6
Exact mass: 352.1886
SMILES: C[C@H]1C[C@@H]2[C@@H]([C@@H](C[C@@]3(CC[C@]1(O3)O)C)OC(=O)C(C)C)C(=C)C(=O)O2
InChI: InChI=1S/C19H28O6/c1-10(2)16(20)24-14-9-18(5)6-7-19(22,25-18)11(3)8-13-15(14)12(4)17(21)23-13/h10-11,13-15,22H,4,6-9H2,1-3,5H3/t11-,13+,14+,15-,18-,19+/m0/s1
Instrument: Q Exactive Plus, ThermoFisher Scientific
Instrument type: LC-ESI-ITFT
Ms type: MS2
Ion mode: POSITIVE
Ionization: ESI
Collision energy: 50eV
Column name: Acquity CSHC18
Retention time: 7.346 min
Base peak: 353.1953
Precursor m/z: 353.1953
Precursor type: [M+H]+
Precursor intensity: 723676900
m/z	relative intensity
55.0371	44
69.0525	73
95.0679	94
97.4393	147
107.068	172
109.0834	174
111.0626	194
119.0671	254
121.0831	256
133.0829	294
145.0832	317
147.0984	344
149.0777	369
151.0936	427
159.0997	446
161.0783	478
173.0961	608
187.0944	999
