Mass spectrum: Itaconic acid; LC-ESI-ITFT; MS2; CE: 20;  [M-H]-
Name: Itaconic acid
Class: Lipids and lipid-like molecules; Fatty Acyls; Fatty acids and conjugates
Formula: C5H6O4
Exact mass: 130.02661
SMILES: OC(=O)CC(=C)C(O)=O
InChI: InChI=1S/C5H6O4/c1-3(5(8)9)2-4(6)7/h1-2H2,(H,6,7)(H,8,9)
Instrument: Thermo Scientific Q-Exactive Focus
Instrument type: LC-ESI-ITFT
Ms type: MS2
Ion mode: NEGATIVE
Ionization: ESI
Collision energy: 20
Column name: Acquity CSHC18
Retention time: 0.651 min
Base peak: 129.01933
Precursor m/z: 129.01933
Precursor type: [M-H]-
m/z	relative intensity
62.7803	51
72.4866	55
76.9627	59
85.0282	999
96.7509	64
99.2203	54
126.4904	59
129.3973	57
134.8631	50
140.5952	53
