Mass spectrum: Allantoin; LC-ESI-ITFT; MS2; CE: 20;  [M+H]+
Name: Allantoin
Class: Organoheterocyclic compounds; Azoles; Imidazoles
Formula: C4H6N4O3
Exact mass: 158.04399
SMILES: NC(=O)NC1NC(=O)NC1=O
InChI: InChI=1S/C4H6N4O3/c5-3(10)6-1-2(9)8-4(11)7-1/h1H,(H3,5,6,10)(H2,7,8,9,11)
Instrument: Thermo Scientific Q-Exactive Focus
Instrument type: LC-ESI-ITFT
Ms type: MS2
Ion mode: POSITIVE
Ionization: ESI
Collision energy: 20
Column name: Acquity CSHC18
Retention time: 0.630 min
Base peak: 159.05127
Precursor m/z: 159.05127
Precursor type: [M+H]+
m/z	relative intensity
55.0296	39
61.0401	999
72.0448	11
73.04	478
77.0516	11
77.6086	10
99.0191	559
158.2027	10
162.3461	10
178.6007	10
