Mass spectrum: Asparagine; LC-ESI-QTOF; MS2; CE: 15 / 50;  [M-H]-
Name: Asparagine
Class: NA
Formula: C4H8N2O3
Exact mass: 132.0535
SMILES: C(C(C(=O)O)N)C(=O)N
InChI: InChI=1S/C4H8N2O3/c5-2(4(8)9)1-3(6)7/h2H,1,5H2,(H2,6,7)(H,8,9)
Instrument: impact II
Instrument type: LC-ESI-QTOF
Ms type: MS2
Ion mode: NEGATIVE
Ionization: ESI
Collision energy: 15 / 50
Column name: Acquity CSHC18
Retention time: 0.696 min
Base peak: 131.0463
Precursor m/z: 131.0463
Precursor type: [M-H]-
m/z	relative intensity
72.0093	243
95.0248	249
113.0357	571
114.0196	999
