Mass spectrum: (S)-AL 8810; ESI-TOF; MS2; CE: 6.0000000;  [M+H]+
Name: (S)-AL 8810
Class: NA
Formula: C24H31FO4
Exact mass: 402.22064
SMILES: O[C@@H]1[C@H](C/C=C\CCCC(O)=O)[C@@H](/C=C/[C@@H](O)C2CC(C=CC=C3)=C3C2)[C@@H](F)C1
InChI: InChI=1S/C24H31FO4/c25-21-15-23(27)20(9-3-1-2-4-10-24(28)29)19(21)11-12-22(26)18-13-16-7-5-6-8-17(16)14-18/h1,3,5-8,11-12,18-23,26-27H,2,4,9-10,13-15H2,(H,28,29)/b3-1-,12-11+/t19-,20-,21+,22-,23+/m1/s1
Instrument: waters xevo g2 TOF
Instrument type: ESI-TOF
Ms type: MS2
Ion mode: POSITIVE
Ionization: ESI
Collision energy: 6.0000000
Column name: Acquity CSHC18
Retention time: 3.821 min
Base peak: 403.22864
Precursor m/z: 403.22864
Precursor type: [M+H]+
m/z	relative intensity
117.0708	10
119.0879	3
129.0714	163
131.0864	18
141.0721	9
143.0866	39
155.0867	35
157.1015	6
167.0842	4
169.1027	13
171.1181	9
172.1208	1
181.0991	5
185.0962	9
187.1131	31
193.0906	42
193.5802	11
195.1176	8
197.0967	16
199.0794	13
201.1266	6
202.0824	22
205.1215	50
206.1163	6
211.0888	4
213.1277	200
214.1298	29
215.1071	75
217.1225	63
218.1179	7
219.1168	12
221.1286	4
227.1071	2
229.1095	4
231.1368	412
232.1422	62
237.1254	6
249.1359	115
250.1526	6
251.1426	29
265.1227	9
283.1456	2
311.179	38
312.1824	9
317.2092	10
321.1877	12
327.1707	4
329.191	179
330.1931	42
331.1888	8
335.2223	22
336.2273	6
337.2326	6
340.0773	44
345.185	33
346.1822	4
347.2012	999
348.2059	224
349.2015	71
350.1975	7
357.204	177
358.2045	35
363.1944	7
365.2093	315
366.2118	73
367.1719	200
368.2103	93
371.2388	5
373.1716	6
383.2005	39
384.2055	4
385.1847	196
386.185	39
401.1236	8
402.1826	3
405.2005	6
