Mass spectrum: 11-deoxy Prostaglandin F1-alpha; ESI-TOF; MS2; CE: 6.0000000;  [M+H]+
Name: 11-deoxy Prostaglandin F1-alpha
Class: NA
Formula: C20H36O4
Exact mass: 340.26136
SMILES: O[C@@H]1[C@H](CCCCCCC(O)=O)[C@@H](/C=C/[C@@H](O)CCCCC)CC1
InChI: InChI=1S/C20H36O4/c1-2-3-6-9-17(21)14-12-16-13-15-19(22)18(16)10-7-4-5-8-11-20(23)24/h12,14,16-19,21-22H,2-11,13,15H2,1H3,(H,23,24)/b14-12+/t16-,17-,18+,19-/m0/s1
Instrument: waters xevo g2 TOF
Instrument type: ESI-TOF
Ms type: MS2
Ion mode: POSITIVE
Ionization: ESI
Collision energy: 6.0000000
Column name: Acquity CSHC18
Retention time: 4.062 min
Base peak: 341.26936
Precursor m/z: 341.26936
Precursor type: [M+H]+
m/z	relative intensity
107.0869	2
121.1022	9
135.1176	7
137.1349	2
147.1178	3
149.1335	6
159.1179	1
163.1486	8
171.1164	2
172.1009	4
175.1141	2
177.1647	39
178.1675	3
179.1452	2
186.1085	2
189.1447	3
191.1797	4
193.1234	10
195.1382	8
199.1489	1
201.6209	2
203.1638	1
207.1376	11
209.1535	3
221.153	26
223.1709	5
235.1694	52
236.1711	4
249.1857	19
250.1894	2
257.1159	3
269.2252	19
270.2277	2
287.2376	56
288.239	5
303.2313	14
305.1757	999
306.2507	517
307.2545	73
308.2581	5
321.2427	2
323.2581	23
324.2618	4
342.7282	3
