Mass spectrum: Methylmalonic acid; LC-ESI-ITFT; MS2; CE: 10;  [M-H]-
Name: Methylmalonic acid
Class: Organic acids and derivatives; Carboxylic acids and derivatives; Dicarboxylic acids and derivatives
Formula: C4H6O4
Exact mass: 118.02661
SMILES: CC(C(O)=O)C(O)=O
InChI: InChI=1S/C4H6O4/c1-2(3(5)6)4(7)8/h2H,1H3,(H,5,6)(H,7,8)
Instrument: Thermo Scientific Q-Exactive Focus
Instrument type: LC-ESI-ITFT
Ms type: MS2
Ion mode: NEGATIVE
Ionization: ESI
Collision energy: 10
Column name: Acquity CSHC18
Retention time: 0.360 min
Base peak: 117.01933
Precursor m/z: 117.01933
Precursor type: [M-H]-
m/z	relative intensity
55.0178	18
57.8472	1
58.3923	1
73.0283	999
76.9254	1
85.3522	1
100.8598	1
116.9274	6
117.0182	32
134.549	1
