Mass spectrum: N-ACETYLALANINE; LC-ESI-QTOF; MS2; CE: 40;  [M-H]-
Name: N-ACETYLALANINE
Class: NA
Formula: C5H9NO3
Exact mass: 131.05824
SMILES: C[C@H](NC(C)=O)C(O)=O
InChI: InChI=1S/C5H9NO3/c1-3(5(8)9)6-4(2)7/h3H,1-2H3,(H,6,7)(H,8,9)/t3-/m0/s1
Instrument: Agilent 6530Â Q-TOF LC/MS
Instrument type: LC-ESI-QTOF
Ms type: MS2
Ion mode: NEGATIVE
Ionization: ESI
Collision energy: 40
Column name: NA
Retention time: 0.200 min
Base peak: 130.05378
Precursor m/z: 130.05378
Precursor type: [M-H]-
Precursor intensity: 171
m/z	relative intensity
41.0002	109
42.0106	155
43.0221	208
88.0423	999
