Mass spectrum: 3-tigloyloxy-6-methylbutyryloxytropane; LC-ESI-QTOF; MS2; CE: 35eV;  [M+H]+
Name: 3-tigloyloxy-6-methylbutyryloxytropane
Class: Tropane_alkaloid
Formula: C18H29NO4
Exact mass: 323.2097
SMILES: CC(=C(C)C(=O)OC1CC2CC(C(C1)N2C)OC(C(C)CC)=O)[H]
InChI: InChI=1S/C18H29NO4/c1-6-11(3)17(20)22-14-8-13-9-16(15(10-14)19(13)5)23-18(21)12(4)7-2/h6,12-16H,7-10H2,1-5H3
Instrument: maXis impact HD, Bruker; Dionex 3000, Thermo Scientific
Instrument type: LC-ESI-QTOF
Ms type: MS2
Ion mode: POSITIVE
Ionization: ESI
Collision energy: 35eV
Column name: Acquity CSHC18
Retention time: 12.680 min
Base peak: 324.2160
Precursor m/z: 324.2160
Precursor type: [M+H]+
Precursor intensity: 2462.25
m/z	relative intensity
91.054	380
94.0653	110
105.0681	38
107.0852	46
118.0736	42
121.0647	44
122.0964	999
135.0788	64
138.0888	44
140.1055	128
141.9956	41
144.9938	57
149.9848	50
151.9768	43
155.9826	39
157.0989	47
160.976	38
163.0255	55
174.9906	50
181.0384	74
182.9092	48
187.0039	49
195.0027	37
196.9318	40
198.8955	55
202.9657	66
203.8837	47
208.9758	45
213.8881	55
218.9278	75
222.1511	59
224.1621	186
228.9273	35
232.9818	40
239.8883	34
243.0498	51
246.9229	35
255.9174	34
257.9074	43
259.0398	36
263.9005	77
274.885	37
281.9131	36
290.8999	42
324.2181	53
