Mass spectrum: 1-lignoceroyl-2-hydroxy-sn-glycero-3-phosphocholine; ESI-TOF; MS2; CE: 0.6458333;  [M+H]+
Name: 1-lignoceroyl-2-hydroxy-sn-glycero-3-phosphocholine
Class: NA
Formula: C32H66NO7P
Exact mass: 607.45769
SMILES: [H]OC([H])(C([H])([H])OC(=O)C([H])([H])C([H])([H])C([H])([H])C([H])([H])C([H])([H])C([H])([H])C([H])([H])C([H])([H])C([H])([H])C([H])([H])C([H])([H])C([H])([H])C([H])([H])C([H])([H])C([H])([H])C([H])([H])C([H])([H])C([H])([H])C([H])([H])C([H])([H])C([H])([H])C([H])([H])C([H])([H])[H])C([H])([H])OP(=O)([O-])OC([H])([H])C([H])([H])[N+](C([H])([H])[H])(C([H])([H])[H])C([H])([H])[H]
InChI: InChI=1S/C32H66NO7P/c1-5-6-7-8-9-10-11-12-13-14-15-16-17-18-19-20-21-22-23-24-25-26-32(35)38-29-31(34)30-40-41(36,37)39-28-27-33(2,3)4/h31,34H,5-30H2,1-4H3
Instrument: waters xevo g2 TOF
Instrument type: ESI-TOF
Ms type: MS2
Ion mode: POSITIVE
Ionization: ESI
Collision energy: 0.6458333
Column name: Acquity CSHC18
Retention time: 9.713 min
Base peak: 608.46569
Precursor m/z: 608.46569
Precursor type: [M+H]+
m/z	relative intensity
86.098	54
102.0924	4
104.1084	999
105.1116	59
112.9924	12
120.5195	14
125.0015	13
129.5261	29
138.5318	6
148.5335	104
157.5383	64
162.9482	20
184.0745	566
185.0771	31
192.9582	13
240.101	21
258.1115	11
290.13	6
295.1967	5
296.0574	9
315.2078	8
407.3199	64
408.3232	6
425.3997	23
426.4025	5
531.3812	5
543.3127	21
543.8126	3
544.3131	5
571.3745	68
572.3776	15
573.3773	5
590.4548	286
591.4582	102
592.4608	18
594.8629	9
595.3648	6
597.8987	10
598.4011	10
602.849	4
608.4652	531
609.4687	188
