Mass spectrum: D-mannitol; LC-ESI-QTOF; MS2; CE: -10, -35, -60V;  [M-H]-
Name: D-mannitol
Class: NA
Formula: C6H14O6
Exact mass: 182.0790
SMILES: C(C(C(C(C(CO)O)O)O)O)O
InChI: InChI=1S/C6H14O6/c7-1-3(9)5(11)6(12)4(10)2-8/h3-12H,1-2H2
Instrument: TripleToF 5600; Sciex
Instrument type: LC-ESI-QTOF
Ms type: MS2
Ion mode: NEGATIVE
Ionization: ESI
Collision energy: -10, -35, -60V
Column name: Acquity CSHC18
Retention time: 0.674 min
Base peak: 181.0757
Precursor m/z: 181.0757
Precursor type: [M-H]-
Precursor intensity: 636885.7
m/z	relative intensity
71.0094	131
71.0129	131
72.0204	8
73.029	26
83.0137	14
85.0296	31
87.0078	3
89.0247	123
101.0202	95
101.0259	95
113.0312	10
119.0368	37
149.0475	23
161.0431	18
161.0592	18
163.0629	107
164.063	10
180.5153	15
181.0752	999
