Mass spectrum: Quercetin 3-gentiobioside; LC-ESI-QTOF; MS2; CE: 50eV;  [M+H]+
Name: Quercetin 3-gentiobioside
Class: Flavonol
Formula: C27H30O17
Exact mass: 626.1483
SMILES: C1=CC(=C(C=C1C2=C(C(=O)C3=C(C=C(C=C3O2)O)O)OC4C(C(C(C(O4)COC5C(C(C(C(O5)CO)O)O)O)O)O)O)O)O
InChI: InChI=1S/C27H30O17/c28-6-14-17(33)20(36)22(38)26(42-14)40-7-15-18(34)21(37)23(39)27(43-15)44-25-19(35)16-12(32)4-9(29)5-13(16)41-24(25)8-1-2-10(30)11(31)3-8/h1-5,14-15,17-18,20-23,26-34,36-39H,6-7H2
Instrument: TIMS-TOF Pro, Bruker Daltonik; Elute UHPLC System, Bruker Daltonik
Instrument type: LC-ESI-QTOF
Ms type: MS2
Ion mode: POSITIVE
Ionization: ESI
Collision energy: 50eV
Column name: Acquity CSHC18
Retention time: 4.728 min
Base peak: 627.1532
Precursor m/z: 627.1532
Precursor type: [M+H]+
Precursor intensity: 61495.5
m/z	relative intensity
16.3503	7
55.0149	12
69.032	12
83.0474	15
85.0283	271
87.0445	22
97.0274	96
99.046	11
108.8261	14
115.0396	44
127.0401	174
145.0475	196
146.0524	31
163.0585	204
203.0353	5
257.0423	11
280.6874	3
286.4181	18
303.0069	162
303.0235	100
303.2666	8
303.5429	62
304.0518	999
304.4863	11
305.0513	95
318.4072	6
345.0543	14
447.0953	4
449.0869	9
465.0734	38
465.1007	211
466.1073	56
467.1081	16
519.1398	3
