Mass spectrum: Epi-Inunolide-Glutathione; LC-ESI-ITFT; MS2; CE: 50eV;  [M+H]+
Name: Epi-Inunolide-Glutathione
Class: Sesquiterpenelactone; Eudesmanolide
Formula: C25H37N3O8S
Exact mass: 539.2301
SMILES: O=C(O)[C@@H](N)CCC(=O)N[C@@H](CSCC1C(=O)O[C@H]2CC(C)=CCCC(C)=CC[C@H]12)C(=O)NCC(=O)O
InChI: InChI=1S/C25H37N3O8S/c1-14-4-3-5-15(2)10-20-16(7-6-14)17(25(35)36-20)12-37-13-19(23(32)27-11-22(30)31)28-21(29)9-8-18(26)24(33)34/h5-6,16-20H,3-4,7-13,26H2,1-2H3,(H,27,32)(H,28,29)(H,30,31)(H,33,34)/t16-,17?,18+,19+,20+/m1/s1
Instrument: Q Exactive Plus, ThermoFisher Scientific
Instrument type: LC-ESI-ITFT
Ms type: MS2
Ion mode: POSITIVE
Ionization: ESI
Collision energy: 50eV
Column name: Acquity CSHC18
Retention time: 6.846 min
Base peak: 540.2375
Precursor m/z: 540.2375
Precursor type: [M+H]+
Precursor intensity: 180328300
m/z	relative intensity
68.7126	425
76.0223	38
81.0707	121
84.0454	39
93.0709	51
95.0856	54
97.4002	40
100.8114	30
105.0696	283
107.0863	70
114.402	32
116.017	62
119.0859	134
121.0651	44
129.0657	122
130.0503	45
131.0862	71
135.117	40
145.0608	136
145.1023	64
153.1816	33
159.1173	292
161.133	608
162.0215	47
179.0493	73
185.1309	66
187.1492	484
189.164	37
197.1335	132
215.142	354
219.1202	136
233.0571	54
247.1136	147
265.1257	316
272.3077	33
285.1241	37
290.158	43
308.169	441
381.1042	32
394.1678	59
404.097	34
411.1918	999
428.1323	35
465.2049	536
540.238	70
