Mass spectrum: N-Acetylaspartic acid; LC-ESI-QTOF; MS2; CE: 30;  [M-H]-
Name: N-Acetylaspartic acid
Class: NA
Formula: C6H9NO5
Exact mass: 175.0481
SMILES: CC(=O)NC(CC(=O)O)C(=O)O
InChI: InChI=1S/C6H9NO5/c1-3(8)7-4(6(11)12)2-5(9)10/h4H,2H2,1H3,(H,7,8)(H,9,10)(H,11,12)
Instrument: impact II
Instrument type: LC-ESI-QTOF
Ms type: MS2
Ion mode: NEGATIVE
Ionization: ESI
Collision energy: 30
Column name: Acquity CSHC18
Retention time: 1.684 min
Base peak: 174.0397
Precursor m/z: 174.0397
Precursor type: [M-H]-
m/z	relative intensity
84.0465	77
88.0404	999
89.0426	86
115.0039	93
