Mass spectrum: L-Histidine; LC-ESI-ITFT; MS2; CE: 100;  [M+H]+
Name: L-Histidine
Class: Organic acids and derivatives; Carboxylic acids and derivatives; Amino acids, peptides, and analogues
Formula: C6H9N3O2
Exact mass: 155.06948
SMILES: N[C@@H](CC1=CN=CN1)C(O)=O
InChI: InChI=1S/C6H9N3O2/c7-5(6(10)11)1-4-2-8-3-9-4/h2-3,5H,1,7H2,(H,8,9)(H,10,11)/t5-/m0/s1
Instrument: Thermo Scientific Q-Exactive Focus
Instrument type: LC-ESI-ITFT
Ms type: MS2
Ion mode: POSITIVE
Ionization: ESI
Collision energy: 100
Column name: Acquity CSHC18
Retention time: 2.570 min
Base peak: 156.07675
Precursor m/z: 156.07675
Precursor type: [M+H]+
m/z	relative intensity
51.4225	59
53.0028	166
54.0344	999
69.1258	57
81.0452	178
109.9181	58
114.7262	59
120.0982	60
134.3415	59
174.5832	60
