Mass spectrum: Treprostinil; ESI-TOF; MS2; CE: 0.6458333;  [M+H]+
Name: Treprostinil
Class: NA
Formula: C23H34O5
Exact mass: 390.24062
SMILES: [H][C@]12C[C@@H](O)[C@H](CC[C@@H](O)CCCCC)[C@@]1([H])CC1=C(C2)C(OCC(O)=O)=CC=C1
InChI: InChI=1S/C23H34O5/c1-2-3-4-7-17(24)9-10-18-19-11-15-6-5-8-22(28-14-23(26)27)20(15)12-16(19)13-21(18)25/h5-6,8,16-19,21,24-25H,2-4,7,9-14H2,1H3,(H,26,27)/t16-,17-,18+,19-,21+/m0/s1
Instrument: waters xevo g2 TOF
Instrument type: ESI-TOF
Ms type: MS2
Ion mode: POSITIVE
Ionization: ESI
Collision energy: 0.6458333
Column name: Acquity CSHC18
Retention time: 4.378 min
Base peak: 391.24862
Precursor m/z: 391.24862
Precursor type: [M+H]+
m/z	relative intensity
67.0534	44
69.0693	17
81.07	188
95.0864	496
96.0901	26
97.1021	70
107.0501	47
109.1024	226
110.1051	15
123.119	22
127.0548	19
129.0713	62
131.0498	117
137.0976	31
141.0711	50
143.0871	20
145.0657	351
146.0679	14
151.149	163
152.1505	13
156.0579	50
157.0659	315
158.071	48
159.0806	77
165.1092	70
167.0877	32
169.0657	69
170.0697	26
171.0814	229
172.0864	8
173.0954	9
183.082	65
184.088	36
185.0964	31
191.0715	297
197.0944	36
198.1022	74
199.1096	24
203.0713	601
204.0748	100
205.0851	71
211.103	204
212.1174	24
215.1008	754
216.0733	89
217.0871	357
225.1287	42
229.0856	89
230.0878	12
231.1022	81
232.1067	7
241.1557	9
243.1025	758
244.106	83
245.1149	38
253.1602	8
257.1179	292
258.1211	31
267.1731	9
271.1329	102
273.1495	41
274.151	7
281.1809	21
285.1499	34
299.144	12
309.2206	183
310.2258	33
337.2139	15
355.2274	999
356.2312	255
357.233	21
373.2383	341
374.241	67
375.243	8
391.2491	52
392.2528	11
393.1852	9
