Mass spectrum: o-Anisic acid; LC-ESI-QTOF; MS2; CE: 15.00;  [M+H]+
Name: o-Anisic acid
Class: NA
Formula: C8H8O3
Exact mass: 152.0473
SMILES: COC1=CC=CC=C1C(=O)O
InChI: InChI=1S/C8H8O3/c1-11-7-5-3-2-4-6(7)8(9)10/h2-5H,1H3,(H,9,10)
Instrument: Bruker MicrOTOF-Q
Instrument type: LC-ESI-QTOF
Ms type: MS2
Ion mode: POSITIVE
Ionization: ESI
Collision energy: 15.00
Column name: Acquity CSHC18
Retention time: NA
Base peak: 153.0546
Precursor m/z: 153.0546
Precursor type: [M+H]+
m/z	relative intensity
92.0227	12
105.0313	15
120.0191	30
135.0435	84
136.0465	999
