Mass spectrum: CYTIDINE; LC-ESI-QTOF; MS2; CE: 10;  [M-H]-
Name: CYTIDINE
Class: NA
Formula: C9H13N3O5
Exact mass: 243.08552
SMILES: NC1=NC(=O)N(C=C1)[C@@H]1O[C@H](CO)[C@@H](O)[C@H]1O
InChI: InChI=1S/C9H13N3O5/c10-5-1-2-12(9(16)11-5)8-7(15)6(14)4(3-13)17-8/h1-2,4,6-8,13-15H,3H2,(H2,10,11,16)/t4-,6-,7-,8-/m1/s1
Instrument: Agilent 6530Â Q-TOF LC/MS
Instrument type: LC-ESI-QTOF
Ms type: MS2
Ion mode: NEGATIVE
Ionization: ESI
Collision energy: 10
Column name: NA
Retention time: 0.200 min
Base peak: 242.08164
Precursor m/z: 242.08164
Precursor type: [M-H]-
Precursor intensity: 145
m/z	relative intensity
42.01	132
67.0338	227
81.0543	310
91.0291	431
109.0615	436
110.0489	759
242.0985	999
