Mass spectrum: D-Xylose; ESI-TOF; MS2; CE: 0.6458333;  [M+H]+
Name: D-Xylose
Class: NA
Formula: C5H10O5
Exact mass: 150.05282
SMILES: OC1COC(O)C(O)C1O
InChI: InChI=1S/C5H10O5/c6-2-1-10-5(9)4(8)3(2)7/h2-9H,1H2
Instrument: waters xevo g2 TOF
Instrument type: ESI-TOF
Ms type: MS2
Ion mode: POSITIVE
Ionization: ESI
Collision energy: 0.6458333
Column name: Acquity CSHC18
Retention time: 0.556 min
Base peak: 151.06082
Precursor m/z: 151.06082
Precursor type: [M+H]+
m/z	relative intensity
100.9577	180
113.9403	999
115.957	187
116.9687	71
126.9482	536
130.0086	5
130.0087	5
135.9925	5
135.9929	5
137.9881	11
143.9594	5
154.9673	5
157.068	5
157.9655	70
163.9764	5
169.9671	179
173.0421	5
183.988	5
185.9872	5
203.9725	302
204.9783	102
261.9969	5
263.9938	137
264.9977	5
265.9974	5
302.1969	5
323.097	5
354.027	5
