Mass spectrum: Maltose; LC-ESI-QTOF; MS2; CE: -10, -35, -60V;  [M-H]-
Name: Maltose
Class: NA
Formula: C12H22O11
Exact mass: 342.1162
SMILES: C(C1C(C(C(C(O1)OC2C(OC(C(C2O)O)O)CO)O)O)O)O
InChI: InChI=1S/C12H22O11/c13-1-3-5(15)6(16)9(19)12(22-3)23-10-4(2-14)21-11(20)8(18)7(10)17/h3-20H,1-2H2
Instrument: TripleToF 5600; Sciex
Instrument type: LC-ESI-QTOF
Ms type: MS2
Ion mode: NEGATIVE
Ionization: ESI
Collision energy: -10, -35, -60V
Column name: Acquity CSHC18
Retention time: 0.674 min
Base peak: 341.1093
Precursor m/z: 341.1093
Precursor type: [M-H]-
Precursor intensity: 88591.63
m/z	relative intensity
73.0304	115
83.0164	36
89.0233	128
97.0352	117
101.0244	217
119.038	64
143.0255	182
143.0356	182
161.0475	999
162.054	109
179.0453	540
179.0566	541
221.0684	269
263.0822	105
281.0947	156
341.1071	669
