Mass spectrum: Benzoic acid; LC-ESI-ITFT; MS2; CE: 100;  [M-H]-
Name: Benzoic acid
Class: Benzenoids; Benzene and substituted derivatives; Benzoic acids and derivatives
Formula: C7H6O2
Exact mass: 122.03678
SMILES: OC(=O)C1=CC=CC=C1
InChI: InChI=1S/C7H6O2/c8-7(9)6-4-2-1-3-5-6/h1-5H,(H,8,9)
Instrument: Thermo Scientific Q-Exactive Focus
Instrument type: LC-ESI-ITFT
Ms type: MS2
Ion mode: NEGATIVE
Ionization: ESI
Collision energy: 100
Column name: Acquity CSHC18
Retention time: 2.582 min
Base peak: 121.02950
Precursor m/z: 121.02950
Precursor type: [M-H]-
m/z	relative intensity
52.2571	999
57.3505	911
59.658	895
67.8482	923
77.3682	893
82.8838	937
82.931	886
88.4671	907
94.1767	895
95.6272	970
