Mass spectrum: Picolinic acid; LC-ESI-ITFT; MS2; CE: 60;  [M+H]+
Name: Picolinic acid
Class: Organoheterocyclic compounds; Pyridines and derivatives; Pyridinecarboxylic acids and derivatives
Formula: C6H5NO2
Exact mass: 123.03203
SMILES: OC(=O)C1=CC=CC=N1
InChI: InChI=1S/C6H5NO2/c8-6(9)5-3-1-2-4-7-5/h1-4H,(H,8,9)
Instrument: Thermo Scientific Q-Exactive Focus
Instrument type: LC-ESI-ITFT
Ms type: MS2
Ion mode: POSITIVE
Ionization: ESI
Collision energy: 60
Column name: Acquity CSHC18
Retention time: 1.854 min
Base peak: 124.03930
Precursor m/z: 124.03930
Precursor type: [M+H]+
m/z	relative intensity
50.0158	999
51.0236	925
52.0188	139
52.0314	9
53.0028	38
65.0027	53
71.7522	7
78.0343	62
96.0448	10
128.1625	7
