Mass spectrum: S-Adenosylhomocysteine; LC-ESI-ITFT; MS2; CE: 30;  [M+H]+
Name: S-Adenosylhomocysteine
Class: Nucleosides, nucleotides, and analogues; 5'-deoxyribonucleosides; 5'-deoxy-5'-thionucleosides
Formula: C14H20N6O5S
Exact mass: 384.12159
SMILES: N[C@@H](CCSC[C@H]1O[C@H]([C@H](O)[C@@H]1O)N1C=NC2=C1N=CN=C2N)C(O)=O
InChI: InChI=1S/C14H20N6O5S/c15-6(14(23)24)1-2-26-3-7-9(21)10(22)13(25-7)20-5-19-8-11(16)17-4-18-12(8)20/h4-7,9-10,13,21-22H,1-3,15H2,(H,23,24)(H2,16,17,18)/t6-,7+,9+,10+,13+/m0/s1
Instrument: Thermo Scientific Q-Exactive Focus
Instrument type: LC-ESI-ITFT
Ms type: MS2
Ion mode: POSITIVE
Ionization: ESI
Collision energy: 30
Column name: Acquity CSHC18
Retention time: 0.914 min
Base peak: 385.12885
Precursor m/z: 385.12885
Precursor type: [M+H]+
m/z	relative intensity
88.0219	344
90.0375	3
97.0286	29
99.0442	7
102.0374	2
102.0552	2
134.0271	825
136.0617	999
148.0425	3
250.074	3
