Mass spectrum: Veratramine; LC-ESI-QTOF; MS2; CE: 23.27;  [M+H]+
Name: Veratramine
Class: NA
Formula: C27H39NO2
Exact mass: 409.2981
SMILES: CC1CC(C(NC1)C(C)C2=C(C3=C(C=C2)C4CC=C5CC(CCC5(C4C3)C)O)C)O
InChI: InChI=1S/C27H39NO2/c1-15-11-25(30)26(28-14-15)17(3)20-7-8-21-22-6-5-18-12-19(29)9-10-27(18,4)24(22)13-23(21)16(20)2/h5,7-8,15,17,19,22,24-26,28-30H,6,9-14H2,1-4H3
Instrument: Bruker MicrOTOF-Q
Instrument type: LC-ESI-QTOF
Ms type: MS2
Ion mode: POSITIVE
Ionization: ESI
Collision energy: 23.27
Column name: Acquity CSHC18
Retention time: NA
Base peak: 410.3054
Precursor m/z: 410.3054
Precursor type: [M+H]+
m/z	relative intensity
114.088	32
295.2047	38
296.2072	45
392.2925	126
393.2935	187
410.3046	350
411.306	835
412.3083	999
