Mass spectrum: SUCROSE; LC-ESI-QTOF; MS2; CE: 20;  [M-H]-
Name: SUCROSE
Class: NA
Formula: C12H22O11
Exact mass: 342.11621
SMILES: OC[C@H]1O[C@@](CO)(O[C@H]2O[C@H](CO)[C@@H](O)[C@H](O)[C@H]2O)[C@@H](O)[C@@H]1O
InChI: InChI=1S/C12H22O11/c13-1-4-6(16)8(18)9(19)11(21-4)23-12(3-15)10(20)7(17)5(2-14)22-12/h4-11,13-20H,1-3H2/t4-,5-,6-,7-,8+,9-,10+,11-,12+/m1/s1
Instrument: Agilent 6530Â Q-TOF LC/MS
Instrument type: LC-ESI-QTOF
Ms type: MS2
Ion mode: NEGATIVE
Ionization: ESI
Collision energy: 20
Column name: NA
Retention time: 0.200 min
Base peak: 341.10321
Precursor m/z: 341.10321
Precursor type: [M-H]-
Precursor intensity: 106
m/z	relative intensity
59.0329	119
71.02	125
89.0442	265
101.0325	300
113.0325	326
119.0426	340
131.0335	809
179.0538	999
