Mass spectrum: 5-Hydroxymethyl-2-furancarboxaldehyde; LC-ESI-ITFT; MS2; CE: 60;  [M-H]-
Name: 5-Hydroxymethyl-2-furancarboxaldehyde
Class: Organooxygen compounds; Carbonyl compounds; Aldehydes
Formula: C6H6O3
Exact mass: 126.03169
SMILES: OCC1=CC=C(O1)C=O
InChI: InChI=1S/C6H6O3/c7-3-5-1-2-6(4-8)9-5/h1-3,8H,4H2
Instrument: Thermo Scientific Q-Exactive Focus
Instrument type: LC-ESI-ITFT
Ms type: MS2
Ion mode: NEGATIVE
Ionization: ESI
Collision energy: 60
Column name: Acquity CSHC18
Retention time: 2.029 min
Base peak: 125.02442
Precursor m/z: 125.02442
Precursor type: [M-H]-
m/z	relative intensity
51.1122	85
74.7486	75
79.9561	999
89.3922	78
105.4568	75
113.4493	78
117.1162	77
123.8517	75
127.1253	75
143.4101	77
