Mass spectrum: Nicotinuric acid; ESI-TOF; MS2; CE: 0.6458333;  [M+H]+
Name: Nicotinuric acid
Class: NA
Formula: C8H8N2O3
Exact mass: 180.05349
SMILES: OC(=O)CNC(=O)C1=CN=CC=C1
InChI: InChI=1S/C8H8N2O3/c11-7(12)5-10-8(13)6-2-1-3-9-4-6/h1-4H,5H2,(H,10,13)(H,11,12)
Instrument: waters xevo g2 TOF
Instrument type: ESI-TOF
Ms type: MS2
Ion mode: POSITIVE
Ionization: ESI
Collision energy: 0.6458333
Column name: Acquity CSHC18
Retention time: 0.793 min
Base peak: 181.06149
Precursor m/z: 181.06149
Precursor type: [M+H]+
m/z	relative intensity
78.0344	42
79.0422	327
80.0499	244
81.0532	12
90.0341	4
92.0498	40
96.0447	11
96.9612	15
105.0452	33
106.0291	50
107.0606	613
108.0447	150
109.0479	23
110.0599	14
117.045	259
123.0561	4
124.0399	16
134.0476	58
135.1555	999
136.0586	702
137.0681	27
163.0501	9
181.0609	975
182.0639	37
