Mass spectrum: CREATININE; LC-ESI-QTOF; MS2; CE: 10;  [M+H]+
Name: CREATININE
Class: NA
Formula: C4H7N3O
Exact mass: 113.0589
SMILES: CN1CC(=O)NC1=N
InChI: InChI=1S/C4H7N3O/c1-7-2-3(8)6-4(7)5/h2H2,1H3,(H2,5,6,8)
Instrument: Agilent 6530Â Q-TOF LC/MS
Instrument type: LC-ESI-QTOF
Ms type: MS2
Ion mode: POSITIVE
Ionization: ESI
Collision energy: 10
Column name: NA
Retention time: 0.200 min
Base peak: 114.06811
Precursor m/z: 114.06811
Precursor type: [M+H]+
Precursor intensity: 132.5
m/z	relative intensity
43.0298	68
44.0503	83
86.0708	749
114.0671	999
