Mass spectrum: Propyl gallate; LC-ESI-ITFT; MS2; CE: 100;  [M-H]-
Name: Propyl gallate
Class: Benzenoids; Benzene and substituted derivatives; Benzoic acids and derivatives
Formula: C10H12O5
Exact mass: 212.06847
SMILES: CCCOC(=O)C1=CC(O)=C(O)C(O)=C1
InChI: InChI=1S/C10H12O5/c1-2-3-15-10(14)6-4-7(11)9(13)8(12)5-6/h4-5,11-13H,2-3H2,1H3
Instrument: Thermo Scientific Q-Exactive Focus
Instrument type: LC-ESI-ITFT
Ms type: MS2
Ion mode: NEGATIVE
Ionization: ESI
Collision energy: 100
Column name: Acquity CSHC18
Retention time: 2.582 min
Base peak: 211.06120
Precursor m/z: 211.06120
Precursor type: [M-H]-
m/z	relative intensity
65.0021	999
81.3122	471
98.7291	500
110.0739	505
123.9665	525
137.2853	506
142.0792	473
155.2115	538
200.7686	481
229.1504	476
