Mass spectrum: PANTOTHENATE; LC-ESI-QTOF; MS2; CE: 20;  [M+H]+
Name: PANTOTHENATE
Class: NA
Formula: C9H17NO5
Exact mass: 219.11067
SMILES: CC(C)(CO)C(O)C(=O)NCCC(O)=O
InChI: InChI=1S/C9H17NO5/c1-9(2,5-11)7(14)8(15)10-4-3-6(12)13/h7,11,14H,3-5H2,1-2H3,(H,10,15)(H,12,13)
Instrument: Agilent 6530Â Q-TOF LC/MS
Instrument type: LC-ESI-QTOF
Ms type: MS2
Ion mode: POSITIVE
Ionization: ESI
Collision energy: 20
Column name: NA
Retention time: 0.200 min
Base peak: 220.11923
Precursor m/z: 220.11923
Precursor type: [M+H]+
Precursor intensity: 132.5
m/z	relative intensity
41.0571	19
42.049	19
43.0476	20
45.0515	20
47.0229	20
48.0423	21
53.0379	21
55.0517	21
56.0297	22
57.0814	22
57.3024	23
57.5058	23
59.0729	23
61.0358	23
65.0465	24
67.0797	26
69.0918	26
70.0598	26
71.0466	26
72.095	27
72.2626	28
73.0557	29
74.0362	29
79.0674	35
80.0514	37
81.0776	37
82.0663	41
83.0635	46
84.0904	50
85.0972	52
85.3644	55
86.1153	62
87.0833	63
90.27	64
90.5778	66
90.7552	67
91.146	71
91.3349	85
94.0634	92
95.0805	94
96.089	112
97.0662	124
98.0568	126
98.302	141
98.7703	143
99.0839	144
100.056	144
103.097	172
106.0655	195
111.0632	212
112.0832	218
113.0805	255
114.0822	257
116.0586	263
118.0396	265
122.0583	274
124.112	275
124.3004	339
124.7961	415
125.0748	419
130.098	442
131.0705	490
132.0994	575
138.0874	597
142.1168	616
156.1132	833
160.1127	841
166.096	856
174.1083	999
184.1207	19
202.1396	19
220.127	20
