Mass spectrum: HISTIDINOL; LC-ESI-QTOF; MS2; CE: 20;  [M+H]+
Name: HISTIDINOL
Class: NA
Formula: C6H11N3O
Exact mass: 141.09021
SMILES: N[C@H](CO)CC1=CN=CN1
InChI: InChI=1S/C6H11N3O/c7-5(3-10)1-6-2-8-4-9-6/h2,4-5,10H,1,3,7H2,(H,8,9)/t5-/m0/s1
Instrument: Agilent 6530Â Q-TOF LC/MS
Instrument type: LC-ESI-QTOF
Ms type: MS2
Ion mode: POSITIVE
Ionization: ESI
Collision energy: 20
Column name: NA
Retention time: 0.200 min
Base peak: 142.09921
Precursor m/z: 142.09921
Precursor type: [M+H]+
Precursor intensity: 110.5
m/z	relative intensity
41.0469	21
42.0461	21
43.0198	21
44.0616	23
52.0254	23
53.0452	23
54.0601	24
55.0528	25
55.9494	25
56.0652	26
56.9992	26
60.0671	27
61.0416	30
67.0412	34
68.0657	35
69.0575	38
69.9557	38
70.0708	50
78.0328	58
80.071	64
81.3455	70
81.8169	75
82.071	75
82.2315	85
82.3407	91
83.0913	124
94.0541	133
95.0964	137
95.2613	161
96.0685	165
97.0822	172
100.891	174
101.9443	195
107.0793	360
124.1176	385
124.3764	443
124.5394	500
125.09	810
142.1093	999
