Mass spectrum: Limettin; LC-ESI-ITFT; MS2; CE: 45eV;  [M+H]+
Name: Limettin
Class: coumarin
Formula: C11H10O4
Exact mass: 206.0579
SMILES: COC1=CC(=C2C=CC(=O)OC2=C1)OC
InChI: InChI=1S/C11H10O4/c1-13-7-5-9(14-2)8-3-4-11(12)15-10(8)6-7/h3-6H,1-2H3
Instrument: LTQ Orbitrap XL, Thermo Scientfic; Dionex Ultimate 300
Instrument type: LC-ESI-ITFT
Ms type: MS2
Ion mode: POSITIVE
Ionization: ESI
Collision energy: 45eV
Column name: Alltima C18
Retention time: 18.08 min
Base peak: 207.0641
Precursor m/z: 207.0641
Precursor type: [M+H]+
m/z	relative intensity
118.9783	3
120.904	23
134.9325	3
147.1061	3
150.9391	596
162.9492	109
178.9651	999
190.9756	22
