Mass spectrum: Strictosidine secologanatoside; ESI-QTOF; MS2; CE: 30 eV;  [M+H]+
Name: Strictosidine secologanatoside
Class: NA
Formula: C43H56N2O18
Exact mass: 888.3528
SMILES: C=CC1(C(CCN2CCC=3C4=CC=CC=C4NC3C2(CC5(C(C=C)(C(OC=C5C(=O)OC)(OC6(C(C(C(C(CO)(O6)[H])(O)[H])(O)[H])(O)[H])[H])[H])[H])[H])[H])(C(=COC1(OC7(C(C(C(C(CO)(O7)[H])(O)[H])(O)[H])(O)[H])[H])[H])C(=O)O)[H])[H]
InChI: InChI=1S/C43H56N2O18/c1-4-19-21(25(38(54)55)17-58-40(19)62-42-36(52)34(50)32(48)29(15-46)60-42)10-12-45-13-11-23-22-8-6-7-9-27(22)44-31(23)28(45)14-24-20(5-2)41(59-18-26(24)39(56)57-3)63-43-37(53)35(51)33(49)30(16-47)61-43/h4-9,17-21,24,28-30,32-37,40-44,46-53H,1-2,10-16H2,3H3,(H,54,55)
Instrument: Synapt (HDMS 1st gen)
Instrument type: ESI-QTOF
Ms type: MS2
Ion mode: POSITIVE
Ionization: ESI
Collision energy: 30 eV
Column name: Acquity CSHC18
Retention time: 13.243 min
Base peak: 889.3617
Precursor m/z: 889.3617
Precursor type: [M+H]+
Precursor intensity: 561.07
m/z	relative intensity
92.0651	16
97.9067	16
110.0648	32
131.0616	32
133.0664	16
135.081	49
140.0667	16
151.0777	32
152.103	81
164.1112	491
166.0559	65
170.9313	16
178.0831	32
181.1052	147
187.187	16
205.7945	16
222.1433	16
227.105	245
238.1036	32
252.1254	16
274.6087	16
290.1177	114
308.1279	245
319.409	16
325.5763	16
340.154	999
344.1831	98
345.7723	16
373.2189	16
388.1592	360
486.6602	16
502.2126	605
505.2386	16
514.195	147
617.7709	16
712.2231	16
727.3153	212
838.6254	16
867.2694	16
879.8142	16
888.6035	147
