Mass spectrum: Tartaric acid; LC-ESI-ITFT; MS2; CE: 45eV;  [M-H]-
Name: Tartaric acid
Class: phytohormone
Formula: C4H6O6
Exact mass: 150.0164
SMILES: C(C(C(=O)O)O)(C(=O)O)O
InChI: InChI=1S/C4H6O6/c5-1(3(7)8)2(6)4(9)10/h1-2,5-6H,(H,7,8)(H,9,10)
Instrument: LTQ Orbitrap XL, Thermo Scientfic; Dionex Ultimate 300
Instrument type: LC-ESI-ITFT
Ms type: MS2
Ion mode: NEGATIVE
Ionization: ESI
Collision energy: 45eV
Column name: Alltima C18
Retention time: 2.35 min
Base peak: 149.0079
Precursor m/z: 149.0079
Precursor type: [M-H]-
m/z	relative intensity
74.9471	3
86.8254	999
