Mass spectrum: Glucose 6-phosphate; LC-ESI-QTOF; MS2; CE: 10;  [M-H]-
Name: Glucose 6-phosphate
Class: NA
Formula: C6H13O9P
Exact mass: 260.0297
SMILES: C(C(C(C(C(C=O)O)O)O)O)OP(=O)(O)O
InChI: InChI=1S/C6H13O9P/c7-1-3(8)5(10)6(11)4(9)2-15-16(12,13)14/h1,3-6,8-11H,2H2,(H2,12,13,14)
Instrument: impact II
Instrument type: LC-ESI-QTOF
Ms type: MS2
Ion mode: NEGATIVE
Ionization: ESI
Collision energy: 10
Column name: Acquity CSHC18
Retention time: 1.878 min
Base peak: 259.0224
Precursor m/z: 259.0224
Precursor type: [M-H]-
m/z	relative intensity
78.9588	236
96.9698	999
199.0011	111
259.0222	135
