Mass spectrum: Lyciumoside IV; LC-ESI-QTOF; MS2; CE: 20eV; [M+NH4]+
Name: Lyciumoside IV
Class: Diterpene
Formula: C38H64O16
Exact mass: 776.4194
SMILES: CC1C(C(C(C(O1)OC2C(OC(C(C2O)O)OC(C)(CCC=C(C)CCC=C(C)CCC=C(C)COC3C(C(C(C(O3)CO)O)O)O)C=C)CO)O)O)O
InChI: InChI=1S/C38H64O16/c1-7-38(6,54-37-33(48)30(45)34(25(18-40)52-37)53-36-32(47)28(43)26(41)23(5)50-36)16-10-15-21(3)12-8-11-20(2)13-9-14-22(4)19-49-35-31(46)29(44)27(42)24(17-39)51-35/h7,11,14-15,23-37,39-48H,1,8-10,12-13,16-19H2,2-6H3
Instrument: Microtof-q MS
Instrument type: LC-ESI-QTOF
Ms type: MS2
Ion mode: POSITIVE
Ionization: ESI
Collision energy: 20eV
Column name: Acquity CSH C18 column (particle size 1.7 μm, column length 2.1 × 50 mm) (Waters)
Retention time: NA
Base peak: 794.4547
Precursor m/z: 794.4547
Precursor type: [M+NH4]+
m/z	relative intensity
135.1170	161
149.1327	380
159.1168	221
161.1324	360
163.1479	367
173.1324	131
175.1484	280
177.1642	203
187.1487	125
189.1640	229
201.1631	248
215.1797	492
216.1837	88
229.1947	82
231.2101	86
255.0867	89
271.2425	999
272.2462	198
273.0961	90
289.2529	147
309.1186	88
475.3042	111
