Mass spectrum: N-Acetylserotonin; LC-ESI-ITFT; MS2; CE: 60;  [M+H]+
Name: N-Acetylserotonin
Class: Organoheterocyclic compounds; Indoles and derivatives; Hydroxyindoles
Formula: C12H14N2O2
Exact mass: 218.10553
SMILES: CC(=O)NCCC1=CNC2=C1C=C(O)C=C2
InChI: InChI=1S/C12H14N2O2/c1-8(15)13-5-4-9-7-14-12-3-2-10(16)6-11(9)12/h2-3,6-7,14,16H,4-5H2,1H3,(H,13,15)
Instrument: Thermo Scientific Q-Exactive Focus
Instrument type: LC-ESI-ITFT
Ms type: MS2
Ion mode: POSITIVE
Ionization: ESI
Collision energy: 60
Column name: Acquity CSHC18
Retention time: 2.018 min
Base peak: 219.11279
Precursor m/z: 219.11279
Precursor type: [M+H]+
m/z	relative intensity
65.039	244
79.0546	206
89.0388	504
90.0467	188
95.0494	340
103.0544	266
104.0497	193
115.0543	999
117.0573	449
130.0651	387
