Mass spectrum: L-Acetylcarnitine; LC-ESI-ITFT; MS2; CE: 60;  [M+H]+
Name: L-Acetylcarnitine
Class: Lipids and lipid-like molecules; Fatty Acyls; Fatty acid esters
Formula: C9H17NO4
Exact mass: 203.11576
SMILES: CC(=O)O[C@H](CC([O-])=O)C[N+](C)(C)C
InChI: InChI=1S/C9H17NO4/c1-7(11)14-8(5-9(12)13)6-10(2,3)4/h8H,5-6H2,1-4H3/t8-/m1/s1
Instrument: Thermo Scientific Q-Exactive Focus
Instrument type: LC-ESI-ITFT
Ms type: MS2
Ion mode: POSITIVE
Ionization: ESI
Collision energy: 60
Column name: Acquity CSHC18
Retention time: 2.021 min
Base peak: 204.12303
Precursor m/z: 204.12303
Precursor type: [M+H]+
m/z	relative intensity
57.034	376
58.0656	699
60.0813	159
79.6571	37
84.0811	207
85.0287	999
92.524	107
145.6188	39
160.7501	36
201.5767	35
