Mass spectrum: 5-HYDROXYLYSINE; LC-ESI-QTOF; MS2; CE: 20;  [M+H]+
Name: 5-HYDROXYLYSINE
Class: NA
Formula: C6H14N2O3
Exact mass: 162.10044
SMILES: NC[C@H](O)CC[C@H](N)C(O)=O
InChI: InChI=1S/C6H14N2O3/c7-3-4(9)1-2-5(8)6(10)11/h4-5,9H,1-3,7-8H2,(H,10,11)/t4-,5+/m1/s1
Instrument: Agilent 6530Â Q-TOF LC/MS
Instrument type: LC-ESI-QTOF
Ms type: MS2
Ion mode: POSITIVE
Ionization: ESI
Collision energy: 20
Column name: NA
Retention time: 0.200 min
Base peak: 163.10560
Precursor m/z: 163.10560
Precursor type: [M+H]+
Precursor intensity: 111.5
m/z	relative intensity
41.0415	25
42.0369	27
45.0352	29
46.031	33
55.0805	35
56.076	35
57.061	41
59.0676	42
67.0624	42
74.0452	43
75.0398	94
80.0505	160
82.0966	189
83.0548	216
84.0974	251
100.0983	686
128.095	707
146.0754	999
