Mass spectrum: Myo-Inositol; LC-ESI-QTOF; MS2; CE: 19.58 / 19.59;  [2M+H]+
Name: Myo-Inositol
Class: NA
Formula: C6H12O6
Exact mass: 180.0634
SMILES: C1(C(C(C(C(C1O)O)O)O)O)O
InChI: InChI=1S/C6H12O6/c7-1-2(8)4(10)6(12)5(11)3(1)9/h1-12H
Instrument: Bruker MicrOTOF-Q
Instrument type: LC-ESI-QTOF
Ms type: MS2
Ion mode: POSITIVE
Ionization: ESI
Collision energy: 19.58 / 19.59
Column name: Acquity CSHC18
Retention time: NA
Base peak: 361.1341
Precursor m/z: 361.1341
Precursor type: [2M+H]+
m/z	relative intensity
109.0275	210
127.0394	388
145.049	290
163.0597	938
164.0648	62
181.0706	999
182.0718	102
316.5283	17
