Mass spectrum: (20R,22S,25S)-3beta-Acetoxy-22,26-epimino-5alpha-cholestan-20-ol; APCI-ITFT; MS2; CE: 70 HCD;  [M+H]+
Name: (20R,22S,25S)-3beta-Acetoxy-22,26-epimino-5alpha-cholestan-20-ol
Class: NA
Formula: C29H49NO3
Exact mass: 459.37124
SMILES: CC(OC(CCC1(C)C2CCC34C)CC1CCC2C4CCC3C(C)(O)C5CCC(C)CN5)=O
InChI: InChI=1S/C29H49NO3/c1-18-6-11-26(30-17-18)29(5,32)25-10-9-23-22-8-7-20-16-21(33-19(2)31)12-14-27(20,3)24(22)13-15-28(23,25)4/h18,20-26,30,32H,6-17H2,1-5H3
Instrument: Orbitrap Elite
Instrument type: APCI-ITFT
Ms type: MS2
Ion mode: POSITIVE
Ionization: APCI
Collision energy: 70 HCD
Column name: Acquity CSHC18
Retention time: 0.065 min
Base peak: 460.37850
Precursor m/z: 460.37850
Precursor type: [M+H]+
Precursor intensity: 2725548000
m/z	relative intensity
61.715	7
62.7199	7
64.7892	6
77.0385	74
79.0542	430
81.0699	536
82.0651	15
83.0854	36
84.0808	48
90.0799	7
91.0542	388
93.0699	474
95.0497	27
95.0851	346
96.0807	37
97.1011	7
98.0963	999
105.0444	82
105.07	276
107.0856	569
109.1014	191
110.0967	32
112.1118	46
117.07	30
119.085	159
121.101	146
122.0969	7
123.1176	33
124.1118	44
125.12	26
126.1278	344
129.0694	12
131.0853	54
131.8594	10
133.1009	113
135.1173	90
138.1279	22
143.0855	12
144.0922	7
145.1019	65
147.1169	131
147.2714	7
149.1322	104
150.1282	25
152.1431	59
157.101	16
159.1177	58
161.1329	195
163.1481	58
166.1608	8
171.1166	8
173.1321	32
175.1478	25
177.1636	11
201.1639	22
206.3656	7
215.1515	7
225.8982	7
228.0627	8
255.2124	17
272.2663	7
320.5563	7
382.3477	409
442.3674	105
443.353	12
449.183	7
