Mass spectrum: Prostaglandin F2-alpha 1,9-lactone; ESI-TOF; MS2; CE: 0.6458333;  [M+H]+
Name: Prostaglandin F2-alpha 1,9-lactone
Class: NA
Formula: C20H32O4
Exact mass: 336.23006
SMILES: O[C@H]1[C@H](/C=C/[C@@H](O)CCCCC)[C@@H](C/C=C\CCC2)[C@@H](OC2=O)C1
InChI: InChI=1S/C20H32O4/c1-2-3-6-9-15(21)12-13-16-17-10-7-4-5-8-11-20(23)24-19(17)14-18(16)22/h4,7,12-13,15-19,21-22H,2-3,5-6,8-11,14H2,1H3/b7-4-,13-12+/t15-,16+,17+,18+,19-/m0/s1
Instrument: waters xevo g2 TOF
Instrument type: ESI-TOF
Ms type: MS2
Ion mode: POSITIVE
Ionization: ESI
Collision energy: 0.6458333
Column name: Acquity CSHC18
Retention time: 4.262 min
Base peak: 337.23806
Precursor m/z: 337.23806
Precursor type: [M+H]+
m/z	relative intensity
69.0686	36
71.0843	19
79.0545	130
81.0706	139
91.0547	197
95.0863	61
99.0808	43
105.0708	236
106.075	15
107.0864	67
109.0657	29
115.0542	26
117.0724	452
118.0756	39
119.0874	157
121.0652	13
128.0627	47
129.0711	436
130.0752	50
131.0883	536
132.0914	45
135.1179	30
141.0702	67
143.0859	12
144.0914	36
145.1013	311
146.1063	36
147.0818	47
149.0952	11
151.0769	9
154.0781	13
155.0864	171
156.0911	34
157.1024	252
158.0907	45
159.1187	40
161.1322	33
163.1484	17
165.0692	13
167.0872	86
168.0917	13
169.1012	188
170.1061	20
171.1173	272
172.1224	35
173.0616	39
175.1489	63
183.1177	60
184.1179	10
185.0618	117
186.1378	16
187.0795	57
195.118	98
198.0149	8
199.1125	124
200.1513	18
201.1636	65
203.1454	19
209.1374	38
211.1497	12
213.1267	63
215.1761	11
217.1586	29
231.138	77
239.1787	51
241.1963	97
242.1963	12
245.1528	59
247.0379	13
255.211	27
257.189	15
258.0328	9
259.1005	18
265.1961	55
266.1977	13
275.2003	26
279.077	10
283.206	143
301.2161	999
302.2192	192
303.2256	20
313.1434	28
319.2261	23
321.154	18
325.2328	9
328.1133	10
329.1914	7
339.1633	290
