Mass spectrum: Ascorbic acid; LC-ESI-ITFT; MS2; CE: 20;  [M-H]-
Name: Ascorbic acid
Class: Organoheterocyclic compounds; Dihydrofurans; Furanones
Formula: C6H8O6
Exact mass: 176.03209
SMILES: [H][C@@]1(OC(=O)C(O)=C1O)[C@@H](O)CO
InChI: InChI=1S/C6H8O6/c7-1-2(8)5-3(9)4(10)6(11)12-5/h2,5,7-10H,1H2/t2-,5+/m0/s1
Instrument: Thermo Scientific Q-Exactive Focus
Instrument type: LC-ESI-ITFT
Ms type: MS2
Ion mode: NEGATIVE
Ionization: ESI
Collision energy: 20
Column name: Acquity CSHC18
Retention time: 0.642 min
Base peak: 175.02481
Precursor m/z: 175.02481
Precursor type: [M-H]-
m/z	relative intensity
57.0335	4
59.0127	221
67.0178	4
71.0127	221
72.9919	26
73.0283	14
87.0076	999
115.0026	219
118.9652	72
146.9602	23
