Mass spectrum: VALINE; LC-ESI-QFT; MS2; CE: 30eV;  [M+H]+
Name: VALINE
Class: NA
Formula: C5H11NO2
Exact mass: 117.07898
SMILES: CC(C)[C@H](N)C(O)=O
InChI: InChI=1S/C5H11NO2/c1-3(2)4(6)5(7)8/h3-4H,6H2,1-2H3,(H,7,8)/t4-/m0/s1
Instrument: Q-Exactive Orbitrap, Thermo Scientfic; Ultimate 3000 HPLC, Thermo Scientfic
Instrument type: LC-ESI-QFT
Ms type: MS2
Ion mode: POSITIVE
Ionization: ESI
Collision energy: 30eV
Column name: Acquity CSHC18
Retention time: 0.687 min
Base peak: 118.0863
Precursor m/z: 118.0863
Precursor type: [M+H]+
Precursor intensity: 116
m/z	relative intensity
52.2752	6
53.0393	11
54.0368	5
55.055	999
55.8371	6
56.0501	14
57.058	62
58.0659	79
59.0499	9
59.0737	95
73.0785	15
73.0847	189
74.2565	7
103.42	7
116.1978	7
118.123	34
119.09	31
120.8146	7
