Mass spectrum: Adenosine; LC-ESI-QTOF; MS2; CE: 15.91;  [M+HCOOH-H]-
Name: Adenosine
Class: NA
Formula: C10H13N5O4
Exact mass: 267.0968
SMILES: C1=NC(=C2C(=N1)N(C=N2)C3C(C(C(O3)CO)O)O)N
InChI: InChI=1S/C10H13N5O4/c11-8-5-9(13-2-12-8)15(3-14-5)10-7(18)6(17)4(1-16)19-10/h2-4,6-7,10,16-18H,1H2,(H2,11,12,13)
Instrument: Bruker MicrOTOF-Q
Instrument type: LC-ESI-QTOF
Ms type: MS2
Ion mode: NEGATIVE
Ionization: ESI
Collision energy: 15.91
Column name: Acquity CSHC18
Retention time: NA
Base peak: 312.0950
Precursor m/z: 312.0950
Precursor type: [M+HCOOH-H]-
m/z	relative intensity
45.8815	31
47.5738	32
50.212	29
53.6169	33
58.226	31
62.0843	41
62.8807	22
63.8125	33
64.8903	29
66.0687	29
67.7014	30
69.1079	35
71.6503	29
74.8748	35
76.6361	34
78.5502	33
80.7682	36
82.9935	27
84.9491	22
86.2435	29
87.071	31
87.6547	32
88.7528	27
89.7868	29
90.2792	31
91.2358	31
92.4788	31
94.0708	31
95.4206	23
96.646	25
98.5229	31
100.2131	42
100.8225	53
102.6239	29
104.5705	34
106.4981	45
108.1662	55
108.7073	24
110.25	25
111.8381	38
114.9511	29
118.2303	35
121.4663	30
123.5122	16
123.9606	38
124.7202	32
126.4665	45
127.4691	22
129.2578	30
135.1108	999
139.149	16
139.8471	17
140.6612	20
142.4023	17
143.4271	24
144.1791	21
145.9165	26
146.4857	17
147.512	17
149.1002	18
163.4935	32
165.275	29
168.026	27
172.0176	38
174.0315	26
175.7012	33
177.0623	42
195.6969	22
197.3415	31
197.8809	26
207.6452	28
216.94	25
220.8123	26
226.4035	17
231.694	22
234.2868	26
250.4199	35
266.1659	293
267.0893	196
292.5245	30
293.399	40
300.4822	16
301.0383	44
309.482	25
332.8493	25
374.1648	17
381.8044	23
395.6149	16
407.5852	18
422.8539	42
430.1985	31
452.6541	19
459.1829	20
461.233	26
501.2267	20
504.2253	24
577.5345	27
591.7961	17
680.1765	32
686.5826	16
694.4907	34
740.6631	37
776.5267	29
850.4135	24
917.0882	17
922.4255	17
961.6201	33
996.035	21
