Mass spectrum: N-Methyl-D-aspartic acid; ESI-TOF; MS2; CE: 0.6458333;  [M+H]+
Name: N-Methyl-D-aspartic acid
Class: NA
Formula: C5H9NO4
Exact mass: 147.05316
SMILES: CNC(CC(O)=O)C(O)=O
InChI: InChI=1S/C5H9NO4/c1-6-3(5(9)10)2-4(7)8/h3,6H,2H2,1H3,(H,7,8)(H,9,10)
Instrument: waters xevo g2 TOF
Instrument type: ESI-TOF
Ms type: MS2
Ion mode: POSITIVE
Ionization: ESI
Collision energy: 0.6458333
Column name: Acquity CSHC18
Retention time: 0.561 min
Base peak: 148.06116
Precursor m/z: 148.06116
Precursor type: [M+H]+
m/z	relative intensity
72.9378	33
88.0401	999
89.0431	25
96.9619	1
102.0556	60
128.9882	14
130.0504	8
148.061	372
149.0643	1
150.0651	1
162.0763	1
170.0432	1
186.007	26
247.9865	1
295.1141	13
348.024	1
495.0799	1
