Mass spectrum: Xanthine; LC-ESI-ITFT; MS2; CE: 100;  [M+H]+
Name: Xanthine
Class: Organoheterocyclic compounds; Imidazopyrimidines; Purines and purine derivatives
Formula: C5H4N4O2
Exact mass: 152.03343
SMILES: O=C1NC2=C(NC=N2)C(=O)N1
InChI: InChI=1S/C5H4N4O2/c10-4-2-3(7-1-6-2)8-5(11)9-4/h1H,(H3,6,7,8,9,10,11)
Instrument: Thermo Scientific Q-Exactive Focus
Instrument type: LC-ESI-ITFT
Ms type: MS2
Ion mode: POSITIVE
Ionization: ESI
Collision energy: 100
Column name: Acquity CSHC18
Retention time: 2.570 min
Base peak: 153.04070
Precursor m/z: 153.04070
Precursor type: [M+H]+
m/z	relative intensity
53.998	345
59.9308	999
69.0088	247
92.5244	308
95.5786	186
124.3943	178
125.8271	180
137.4048	183
163.1955	184
171.9445	176
