Mass spectrum: NORLEUCINE; LC-ESI-QTOF; MS2; CE: 40;  [M+H]+
Name: NORLEUCINE
Class: NA
Formula: C6H13NO2
Exact mass: 131.09463
SMILES: CCCC[C@H](N)C(O)=O
InChI: InChI=1S/C6H13NO2/c1-2-3-4-5(7)6(8)9/h5H,2-4,7H2,1H3,(H,8,9)/t5-/m0/s1
Instrument: Agilent 6530Â Q-TOF LC/MS
Instrument type: LC-ESI-QTOF
Ms type: MS2
Ion mode: POSITIVE
Ionization: ESI
Collision energy: 40
Column name: NA
Retention time: 0.200 min
Base peak: 132.10134
Precursor m/z: 132.10134
Precursor type: [M+H]+
Precursor intensity: 171.5
m/z	relative intensity
41.0576	64
42.0384	69
43.0546	71
44.0594	114
45.0328	224
55.0162	238
55.934	294
62.9384	999
69.0688	64
