Mass spectrum: THEOBROMINE; LC-ESI-QFT; MS2; CE: 30eV;  [M+H]+
Name: THEOBROMINE
Class: NA
Formula: C7H8N4O2
Exact mass: 180.06473
SMILES: CN1C=NC2=C1C(=O)NC(=O)N2C
InChI: InChI=1S/C7H8N4O2/c1-10-3-8-5-4(10)6(12)9-7(13)11(5)2/h3H,1-2H3,(H,9,12,13)
Instrument: Q-Exactive Orbitrap, Thermo Scientfic; Ultimate 3000 HPLC, Thermo Scientfic
Instrument type: LC-ESI-QFT
Ms type: MS2
Ion mode: POSITIVE
Ionization: ESI
Collision energy: 30eV
Column name: Acquity CSHC18
Retention time: 3.850 min
Base peak: 181.0720
Precursor m/z: 181.0720
Precursor type: [M+H]+
Precursor intensity: 134
m/z	relative intensity
51.9312	13
55.2525	14
55.8235	14
55.9353	19
57.1589	15
62.682	16
67.0299	83
69.0455	80
76.1558	14
77.8692	13
86.1954	17
87.2261	16
91.9563	28
94.7823	15
96.0563	42
108.0564	143
109.8742	15
110.072	194
111.7628	17
111.969	194
112.9675	38
116.9669	23
119.9513	15
119.9758	24
122.0593	31
129.9794	112
130.9777	21
135.0672	188
137.0827	821
138.0667	932
139.9637	71
139.9828	91
157.9744	95
163.0621	283
163.9407	124
166.0493	21
181.9512	68
182.0694	117
182.0761	999
187.9995	17
192.9763	17
196.1398	17
