Mass spectrum: Methylimidazoleacetic acid; ESI-TOF; MS2; CE: 6.0000000;  [M+H]+
Name: Methylimidazoleacetic acid
Class: NA
Formula: C6H8N2O2
Exact mass: 140.05858
SMILES: CN1C=NC(CC(O)=O)=C1
InChI: InChI=1S/C6H8N2O2/c1-8-3-5(7-4-8)2-6(9)10/h3-4H,2H2,1H3,(H,9,10)
Instrument: waters xevo g2 TOF
Instrument type: ESI-TOF
Ms type: MS2
Ion mode: POSITIVE
Ionization: ESI
Collision energy: 6.0000000
Column name: Acquity CSHC18
Retention time: 0.548 min
Base peak: 141.06658
Precursor m/z: 141.06658
Precursor type: [M+H]+
m/z	relative intensity
95.0611	251
96.9612	9
96.9615	11
113.9642	57
113.9644	19
113.9646	14
127.087	56
136.0869	9
137.9881	265
141.0662	999
141.9592	54
142.0693	166
143.0707	15
154.9905	86
155.082	48
156.0838	3
163.0488	14
169.0978	3
172.9774	66
175.0271	8
178.1241	3
236.9396	3
236.9404	5
474.0934	6
496.0785	3
