Mass spectrum: Acetylcarnosine; LC-ESI-ITFT; MS2; CE: 20;  [M-H]-
Name: Acetylcarnosine
Class: Organic acids and derivatives; Peptidomimetics; Hybrid peptides
Formula: C11H16N4O4
Exact mass: 268.11715
SMILES: CC(=O)NCCC(=O)N[C@H](CC1=CN=CN1)C(O)=O
InChI: InChI=1S/C11H16N4O4/c1-7(16)13-3-2-10(17)15-9(11(18)19)4-8-5-12-6-14-8/h5-6,9H,2-4H2,1H3,(H,12,14)(H,13,16)(H,15,17)(H,18,19)/t9-/m1/s1
Instrument: Thermo Scientific Q-Exactive Focus
Instrument type: LC-ESI-ITFT
Ms type: MS2
Ion mode: NEGATIVE
Ionization: ESI
Collision energy: 20
Column name: Acquity CSHC18
Retention time: 0.642 min
Base peak: 267.10989
Precursor m/z: 267.10989
Precursor type: [M-H]-
m/z	relative intensity
58.0286	95
70.0286	71
81.0446	32
93.0446	88
110.0711	95
137.0345	36
146.0713	57
154.0612	999
164.0819	322
267.1098	38
