Mass spectrum: Stearoylethanolamide; LC-ESI-ITFT; MS2; CE: 30;  [M+H]+
Name: Stearoylethanolamide
Class: Organic nitrogen compounds; Organonitrogen compounds; Amines
Formula: C20H41NO2
Exact mass: 327.31373
SMILES: CCCCCCCCCCCCCCCCCC(=O)NCCO
InChI: InChI=1S/C20H41NO2/c1-2-3-4-5-6-7-8-9-10-11-12-13-14-15-16-17-20(23)21-18-19-22/h22H,2-19H2,1H3,(H,21,23)
Instrument: Thermo Scientific Q-Exactive Focus
Instrument type: LC-ESI-ITFT
Ms type: MS2
Ion mode: POSITIVE
Ionization: ESI
Collision energy: 30
Column name: Acquity CSHC18
Retention time: 0.917 min
Base peak: 328.32101
Precursor m/z: 328.32101
Precursor type: [M+H]+
m/z	relative intensity
57.0704	204
62.0606	999
67.0546	33
69.0703	25
71.0859	143
81.0702	39
85.1015	74
95.0857	70
310.3098	52
311.294	33
