Mass spectrum: Lyciumoside IV; LC-ESI-QTOF; MS2; CE: 20eV; [M+NH4]+
Name: Lyciumoside IV
Class: Diterpene
Formula: C38H64O16
Exact mass: 776.4194
SMILES: CC1C(C(C(C(O1)OC2C(OC(C(C2O)O)OC(C)(CCC=C(C)CCC=C(C)CCC=C(C)COC3C(C(C(C(O3)CO)O)O)O)C=C)CO)O)O)O
InChI: InChI=1S/C38H64O16/c1-7-38(6,54-37-33(48)30(45)34(25(18-40)52-37)53-36-32(47)28(43)26(41)23(5)50-36)16-10-15-21(3)12-8-11-20(2)13-9-14-22(4)19-49-35-31(46)29(44)27(42)24(17-39)51-35/h7,11,14-15,23-37,39-48H,1,8-10,12-13,16-19H2,2-6H3
Instrument: Microtof-q MS
Instrument type: LC-ESI-QTOF
Ms type: MS2
Ion mode: POSITIVE
Ionization: ESI
Collision energy: 20eV
Column name: Acquity CSH C18 column (particle size 1.7 μm, column length 2.1 × 50 mm) (Waters)
Retention time: NA
Base peak: 794.4547
Precursor m/z: 794.4547
Precursor type: [M+NH4]+
m/z	relative intensity
129.0548	28
149.1323	34
161.1322	25
163.1479	40
175.1476	24
177.1637	33
189.1636	25
215.1788	59
231.2112	31
255.0868	26
271.2420	999
272.2454	189
273.0972	123
289.2526	232
290.2555	45
309.1184	587
310.1217	69
327.1292	71
381.2776	24
399.2891	58
417.2995	233
418.3025	60
433.2951	38
435.3101	83
451.3051	66
471.1714	75
579.3517	26
597.3636	84
598.3674	27
792.4388	24
794.4550	242
