Mass spectrum: (+)-Catechin; LC-ESI-QTOF; MS2; CE: 15.00;  [M-H2O+H]+
Name: (+)-Catechin
Class: NA
Formula: C15H16O7
Exact mass: 308.0896
SMILES: C1C(C(OC2=CC(=CC(=C21)O)O)C3=CC(=C(C=C3)O)O)O.O
InChI: InChI=1S/C15H14O6.H2O/c16-8-4-11(18)9-6-13(20)15(21-14(9)5-8)7-1-2-10(17)12(19)3-7;/h1-5,13,15-20H,6H2;1H2
Instrument: Bruker MicrOTOF-Q
Instrument type: LC-ESI-QTOF
Ms type: MS2
Ion mode: POSITIVE
Ionization: ESI
Collision energy: 15.00
Column name: Acquity CSHC18
Retention time: NA
Base peak: 291.0863
Precursor m/z: 291.0863
Precursor type: [M-H2O+H]+
m/z	relative intensity
123.0428	24
124.0466	25
139.0387	30
140.0419	34
147.0434	36
151.0396	37
161.0592	43
163.0384	46
165.0549	60
169.0507	62
179.0703	65
181.0507	68
189.0549	84
205.0841	106
207.065	201
208.0677	223
249.0771	312
273.0749	593
291.0869	999
