Mass spectrum: CAY10408; ESI-TOF; MS2; CE: 6.0000000;  [M+H]+
Name: CAY10408
Class: NA
Formula: C23H36O5
Exact mass: 392.25627
SMILES: CCCC1(CCC1)[C@H](O)C/C=C/[C@H]1C(O)CC(=O)C1C/C=C\CCCC(=O)O
InChI: InChI=1S/C23H36O5/c1-2-13-23(14-8-15-23)21(26)11-7-10-18-17(19(24)16-20(18)25)9-5-3-4-6-12-22(27)28/h3,5,7,10,17-18,20-21,25-26H,2,4,6,8-9,11-16H2,1H3,(H,27,28)/b5-3-,10-7+/t17?,18-,20?,21-/m1/s1
Instrument: waters xevo g2 TOF
Instrument type: ESI-TOF
Ms type: MS2
Ion mode: POSITIVE
Ionization: ESI
Collision energy: 6.0000000
Column name: Acquity CSHC18
Retention time: 4.098 min
Base peak: 393.26427
Precursor m/z: 393.26427
Precursor type: [M+H]+
m/z	relative intensity
119.0874	1
123.1185	17
133.0645	2
137.1349	5
149.1332	14
161.1143	6
173.133	12
191.1443	15
201.1277	4
203.1075	18
207.0877	21
215.1077	12
217.1224	13
221.117	5
229.1226	28
231.1369	11
235.133	23
243.1747	8
247.131	36
248.1338	4
255.1745	38
273.1856	13
277.1962	1
303.2153	18
304.2977	6
311.2335	13
313.218	12
315.2322	16
317.1057	9
320.0722	30
321.2219	91
329.2459	10
331.2258	10
339.2327	658
340.2346	145
341.24	17
345.1388	14
357.2431	999
358.2458	251
359.249	36
375.2538	580
376.2572	134
377.26	20
380.1497	2
394.2284	115
