Mass spectrum: 4-IMIDAZOLEACETATE; LC-ESI-QFT; MS2; CE: 30eV;  [M+H]+
Name: 4-IMIDAZOLEACETATE
Class: NA
Formula: C5H6N2O2
Exact mass: 126.04293
SMILES: OC(=O)CC1=CN=CN1
InChI: InChI=1S/C5H6N2O2/c8-5(9)1-4-2-6-3-7-4/h2-3H,1H2,(H,6,7)(H,8,9)
Instrument: Q-Exactive Orbitrap, Thermo Scientfic; Ultimate 3000 HPLC, Thermo Scientfic
Instrument type: LC-ESI-QFT
Ms type: MS2
Ion mode: POSITIVE
Ionization: ESI
Collision energy: 30eV
Column name: Acquity CSHC18
Retention time: 0.594 min
Base peak: 127.0502
Precursor m/z: 127.0502
Precursor type: [M+H]+
Precursor intensity: 117
m/z	relative intensity
54.0347	164
58.8271	18
68.983	22
71.7415	21
72.437	20
81.0705	36
82.0426	178
82.0489	999
84.9606	32
99.056	288
109.0403	29
116.9727	45
128.0481	86
128.0541	520
