Mass spectrum: Salicylic acid; LC-ESI-QTOF; MS2; CE: 15;  [M-H]-
Name: Salicylic acid
Class: NA
Formula: C7H6O3
Exact mass: 138.0317
SMILES: C1=CC=C(C(=C1)C(=O)O)O
InChI: InChI=1S/C7H6O3/c8-6-4-2-1-3-5(6)7(9)10/h1-4,8H,(H,9,10)
Instrument: Bruker MicrOTOF-Q
Instrument type: LC-ESI-QTOF
Ms type: MS2
Ion mode: NEGATIVE
Ionization: ESI
Collision energy: 15
Column name: Acquity CSHC18
Retention time: NA
Base peak: 137.0244
Precursor m/z: 137.0244
Precursor type: [M-H]-
m/z	relative intensity
45.2597	27
45.9182	23
46.4556	35
47.4757	33
48.4194	31
49.8829	36
51.2544	30
52.6037	34
53.9723	45
54.5016	34
55.1162	45
55.6389	36
56.1361	37
56.9335	35
57.9168	38
58.55	25
59.2666	33
59.8454	44
62.1848	40
63.2802	35
63.9411	45
65.2914	39
66.1346	22
66.8234	30
68.3327	31
69.7921	39
71.0245	35
71.9873	34
72.8606	37
73.4529	34
75.0825	32
77.1062	35
78.7772	28
79.5425	32
80.5135	35
81.4698	32
82.8947	40
84.2316	19
85.0463	48
85.7129	30
86.4378	43
87.7954	41
88.4147	66
90.789	45
91.5475	38
93.6998	999
96.2734	37
97.125	27
107.0474	47
108.6828	20
115.4872	36
123.2424	34
133.3957	34
135.6343	20
137.0278	335
138.0182	64
167.0399	35
173.977	46
198.5353	23
216.3866	24
247.3236	23
258.7155	28
286.2034	23
326.585	19
357.9068	19
368.2502	32
381.6558	23
485.7628	21
487.8567	28
547.4775	22
556.1965	23
578.5604	40
620.6993	23
659.4654	21
685.9696	36
714.7327	31
727.8468	22
753.2183	27
788.0684	19
797.3872	26
802.5541	25
852.8927	43
893.9817	34
966.9104	26
990.058	27
