Mass spectrum: 17-phenyl trinor Prostaglandin E2; ESI-TOF; MS2; CE: 0.6458333;  [M+H]+
Name: 17-phenyl trinor Prostaglandin E2
Class: NA
Formula: C23H30O5
Exact mass: 386.20932
SMILES: O[C@H]1[C@H](/C=C/[C@@H](O)CCC2=CC=CC=C2)[C@@H](C/C=C\CCCC(O)=O)C(C1)=O
InChI: InChI=1S/C23H30O5/c24-18(13-12-17-8-4-3-5-9-17)14-15-20-19(21(25)16-22(20)26)10-6-1-2-7-11-23(27)28/h1,3-6,8-9,14-15,18-20,22,24,26H,2,7,10-13,16H2,(H,27,28)/b6-1-,15-14+/t18-,19+,20+,22+/m0/s1
Instrument: waters xevo g2 TOF
Instrument type: ESI-TOF
Ms type: MS2
Ion mode: POSITIVE
Ionization: ESI
Collision energy: 0.6458333
Column name: Acquity CSHC18
Retention time: 3.410 min
Base peak: 387.21732
Precursor m/z: 387.21732
Precursor type: [M+H]+
m/z	relative intensity
67.0522	22
91.0553	999
92.0577	65
103.0547	17
115.0556	84
116.0659	23
117.0714	883
121.0661	33
123.0821	20
129.0711	352
131.0868	743
132.0899	75
133.0662	100
135.0794	23
141.0708	212
143.0869	290
147.0811	62
154.0808	13
155.0862	176
163.1132	15
165.0713	68
178.0794	40
179.0871	90
181.1018	200
186.0987	18
187.1115	52
191.0859	52
193.1015	115
205.1001	121
207.1212	90
211.1115	112
219.1185	84
221.125	78
223.1126	49
224.1226	22
231.1173	88
235.1338	28
237.1243	51
245.1133	32
249.1278	118
256.1264	15
261.1617	84
271.1467	79
273.1639	103
291.1825	47
295.0358	22
296.047	35
315.1744	288
316.1792	63
333.1845	352
334.1873	49
351.1959	187
352.1159	47
388.6818	12
