Mass spectrum: Dihydromyricetin; LC-ESI-QTOF; MS2; CE: 50eV;  [M-H2O-H]-
Name: Dihydromyricetin
Class: Flavanonol
Formula: C15H12O8
Exact mass: 320.0532
SMILES: C1=C(C=C(C(=C1O)O)O)C2C(C(=O)C3=C(C=C(C=C3O2)O)O)O
InChI: InChI=1S/C15H12O8/c16-6-3-7(17)11-10(4-6)23-15(14(22)13(11)21)5-1-8(18)12(20)9(19)2-5/h1-4,14-20,22H
Instrument: TIMS-TOF Pro, Bruker Daltonik; Elute UHPLC System, Bruker Daltonik
Instrument type: LC-ESI-QTOF
Ms type: MS2
Ion mode: NEGATIVE
Ionization: ESI
Collision energy: 50eV
Column name: Acquity CSHC18
Retention time: 4.676 min
Base peak: 301.0313
Precursor m/z: 301.0313
Precursor type: [M-H2O-H]-
Precursor intensity: 29917.63
m/z	relative intensity
57.0323	422
118.8187	264
135.0468	559
145.0257	447
155.0479	422
159.0431	874
163.0389	494
176.009	709
187.0373	359
215.03	999
256.3666	269
