Mass spectrum: L-Pyroglutamic acid; LC-ESI-QTOF; MS2; CE: -10, -35, -60V;  [M-H]-
Name: L-Pyroglutamic acid
Class: NA
Formula: C5H7NO3
Exact mass: 129.0426
SMILES: C1CC(=O)NC1C(=O)O
InChI: InChI=1S/C5H7NO3/c7-4-2-1-3(6-4)5(8)9/h3H,1-2H2,(H,6,7)(H,8,9)
Instrument: TripleToF 5600; Sciex
Instrument type: LC-ESI-QTOF
Ms type: MS2
Ion mode: NEGATIVE
Ionization: ESI
Collision energy: -10, -35, -60V
Column name: Acquity CSHC18
Retention time: 3.327 min
Base peak: 128.0349
Precursor m/z: 128.0349
Precursor type: [M-H]-
Precursor intensity: 396906.3
m/z	relative intensity
82.0331	28
127.6258	24
128.036	999
