Mass spectrum: Strictosidine; ESI-QTOF; MS2; CE: 30 eV;  [M+H]+
Name: Strictosidine
Class: NA
Formula: C27H34N2O9
Exact mass: 530.2264
SMILES: C=CC1(C(CC2(C3=C(CCN2)C4=CC=CC=C4N3)[H])(C(=COC1(OC5(C(C(C(C(CO)(O5)[H])(O)[H])(O)[H])(O)[H])[H])[H])C(=O)OC)[H])[H]
InChI: InChI=1S/C27H34N2O9/c1-3-13-16(10-19-21-15(8-9-28-19)14-6-4-5-7-18(14)29-21)17(25(34)35-2)12-36-26(13)38-27-24(33)23(32)22(31)20(11-30)37-27/h3-7,12-13,16,19-20,22-24,26-33H,1,8-11H2,2H3
Instrument: Synapt (HDMS 1st gen)
Instrument type: ESI-QTOF
Ms type: MS2
Ion mode: POSITIVE
Ionization: ESI
Collision energy: 30 eV
Column name: Acquity CSHC18
Retention time: 11.246 min
Base peak: 531.2329
Precursor m/z: 531.2329
Precursor type: [M+H]+
Precursor intensity: 25052.02
m/z	relative intensity
144.0803	26
165.0544	31
250.0874	33
251.0943	35
282.1146	36
283.1235	38
302.1191	41
308.1313	41
320.13	43
322.146	44
334.1419	54
335.1493	54
340.1553	72
351.1727	77
352.1533	78
353.1609	78
369.1814	137
514.2078	206
516.2104	800
531.2327	999
