Mass spectrum: Selenocystine; ESI-TOF; MS2; CE: 0.6458333;  [M+H]+
Name: Selenocystine
Class: NA
Formula: C6H12N2O4Se2
Exact mass: 335.91275
SMILES: NC(C[Se][Se]CC(N)C(O)=O)C(O)=O
InChI: InChI=1S/C6H12N2O4Se2/c7-3(5(9)10)1-13-14-2-4(8)6(11)12/h3-4H,1-2,7-8H2,(H,9,10)(H,11,12)
Instrument: waters xevo g2 TOF
Instrument type: ESI-TOF
Ms type: MS2
Ion mode: POSITIVE
Ionization: ESI
Collision energy: 0.6458333
Column name: Acquity CSHC18
Retention time: 0.537 min
Base peak: 336.92075
Precursor m/z: 336.92075
Precursor type: [M+H]+
m/z	relative intensity
74.0244	112
88.0397	790
96.9612	4
96.9613	4
97.969	999
101.9403	115
113.9641	4
129.052	4
135.992	4
137.9879	4
170.9824	4
236.9383	4
236.9387	4
236.9401	4
241.8777	4
243.8751	4
245.8743	73
247.8739	59
249.8741	4
332.9228	4
333.9246	4
334.9224	4
336.9195	4
338.9217	4
