Mass spectrum: L-Sorbose; ESI-TOF; MS2; CE: 6.0000000;  [M+H]+
Name: L-Sorbose
Class: NA
Formula: C6H12O6
Exact mass: 180.06339
SMILES: OCC1(O)OCC(O)C(O)C1O
InChI: InChI=1S/C6H12O6/c7-2-6(11)5(10)4(9)3(8)1-12-6/h3-5,7-11H,1-2H2
Instrument: waters xevo g2 TOF
Instrument type: ESI-TOF
Ms type: MS2
Ion mode: POSITIVE
Ionization: ESI
Collision energy: 6.0000000
Column name: Acquity CSHC18
Retention time: 0.561 min
Base peak: 181.07139
Precursor m/z: 181.07139
Precursor type: [M+H]+
m/z	relative intensity
85.0293	26
96.9613	65
97.9665	2
114.9471	2
115.9648	29
130.0083	69
131.9525	2
135.9928	54
135.993	47
137.9882	999
138.9904	121
154.9672	97
168.9591	2
172.8632	2
185.9621	2
186.9691	2
187.0806	40
197.9616	2
200.0465	83
203.0532	986
204.0569	39
233.9831	2
234.9899	40
258.0028	32
279.9866	64
280.9966	134
322.0191	32
324.0146	650
325.0186	88
383.1177	72
414.0481	46
