Mass spectrum: Izalpinin; LC-ESI-QTOF; MS2; CE: 20-40eV;  [M+H]+
Name: Izalpinin
Class: flavonoid
Formula: C16H12O5
Exact mass: 284.0685
SMILES: COC1=CC(=C2C(=C1)OC(C3=CC=CC=C3)=C(C2=O)O)O
InChI: InChI=1S/C16H12O5/c1-20-10-7-11(17)13-12(8-10)21-16(15(19)14(13)18)9-5-3-2-4-6-9/h2-8,17,19H,1H3
Instrument: Impact II, Bruker; Dionex 3000, Thermo Scientific
Instrument type: LC-ESI-QTOF
Ms type: MS2
Ion mode: POSITIVE
Ionization: ESI
Collision energy: 20-40eV
Column name: Acquity CSHC18
Retention time: 4.600 min
Base peak: 285.0755
Precursor m/z: 285.0755
Precursor type: [M+H]+
Precursor intensity: 42382
m/z	relative intensity
142.0562	7
183.0618	9
187.0546	19
285.0451	999
