Mass spectrum: Leptocarpin, 15-hydroxy; LC-ESI-ITFT; MS2; CE: 50eV;  [M+H]+
Name: Leptocarpin, 15-hydroxy
Class: Sesquiterpenelactone; Heliangolide
Formula: C20H26O7
Exact mass: 378.1679
SMILES: C\C=C(\C)C(=O)O[C@@H]2C[C@@]3(C)O[C@@H]3C[C@H](O)C(CO)=C[C@@H]1OC(=O)C(=C)[C@@H]12
InChI: InChI=1S/C20H26O7/c1-5-10(2)18(23)26-15-8-20(4)16(27-20)7-13(22)12(9-21)6-14-17(15)11(3)19(24)25-14/h5-6,13-17,21-22H,3,7-9H2,1-2,4H3/b10-5-,12-6?/t13-,14-,15+,16+,17-,20+/m0/s1
Instrument: Q Exactive Plus, ThermoFisher Scientific
Instrument type: LC-ESI-ITFT
Ms type: MS2
Ion mode: POSITIVE
Ionization: ESI
Collision energy: 50eV
Column name: Acquity CSHC18
Retention time: 5.325 min
Base peak: 379.1743
Precursor m/z: 379.1743
Precursor type: [M+H]+
Precursor intensity: 6055284000
m/z	relative intensity
55.055	130
70.1398	14
81.0707	12
83.0496	999
95.0501	117
97.0651	28
99.044	9
105.0701	9
107.0497	11
111.0449	7
117.0696	88
119.0488	25
119.0858	8
121.0649	27
123.0446	9
129.0695	9
131.0487	20
131.0857	8
133.0647	46
137.0603	34
143.0853	14
145.0647	80
145.1014	9
147.0436	10
147.0809	37
149.0598	32
151.0383	7
155.0861	15
157.0649	8
159.0798	9
161.0581	9
163.0755	32
165.0548	24
165.091	8
169.1017	81
171.0798	79
171.1177	62
173.0964	30
179.0698	7
181.0504	58
181.1005	8
183.0792	14
185.0592	8
185.0974	10
187.0764	10
187.1128	64
189.0898	13
193.0499	41
197.0965	228
199.0741	40
199.1115	114
201.0899	31
213.0906	27
215.1051	159
217.0849	134
225.0894	205
231.1007	35
233.1163	14
243.1012	357
261.1127	97
279.121	11
297.1309	34
350.7177	6
361.1614	7
379.1776	51
