Mass spectrum: MEVALONATE; LC-ESI-QTOF; MS2; CE: 10;  [M-H]-
Name: MEVALONATE
Class: NA
Formula: C6H12O4
Exact mass: 148.07356
SMILES: CC(O)(CCO)CC(O)=O
InChI: InChI=1S/C6H12O4/c1-6(10,2-3-7)4-5(8)9/h7,10H,2-4H2,1H3,(H,8,9)
Instrument: Agilent 6530Â Q-TOF LC/MS
Instrument type: LC-ESI-QTOF
Ms type: MS2
Ion mode: NEGATIVE
Ionization: ESI
Collision energy: 10
Column name: NA
Retention time: 0.200 min
Base peak: 147.06532
Precursor m/z: 147.06532
Precursor type: [M-H]-
Precursor intensity: 135
m/z	relative intensity
41.0048	163
57.0388	221
59.033	273
147.0723	999
