Mass spectrum: ADENOSINE DIPHOSPHATE RIBOSE; LC-ESI-QTOF; MS2; CE: 40;  [M+H]+
Name: ADENOSINE DIPHOSPHATE RIBOSE
Class: NA
Formula: C15H23N5O14P2
Exact mass: 559.07167
SMILES: NC1=C2N=CN(C3OC(COP(O)(=O)OP(O)(=O)OCC4OC(O)C(O)C4O)C(O)C3O)C2=NC=N1
InChI: InChI=1S/C15H23N5O14P2/c16-12-7-13(18-3-17-12)20(4-19-7)14-10(23)8(21)5(32-14)1-30-35(26,27)34-36(28,29)31-2-6-9(22)11(24)15(25)33-6/h3-6,8-11,14-15,21-25H,1-2H2,(H,26,27)(H,28,29)(H2,16,17,18)
Instrument: Agilent 6530Â Q-TOF LC/MS
Instrument type: LC-ESI-QTOF
Ms type: MS2
Ion mode: POSITIVE
Ionization: ESI
Collision energy: 40
Column name: NA
Retention time: 0.200 min
Base peak: 560.07128
Precursor m/z: 560.07128
Precursor type: [M+H]+
Precursor intensity: 37.5
m/z	relative intensity
97.0145	41
97.0202	94
97.0258	111
97.0315	106
97.0371	88
97.0428	67
97.0484	48
97.0541	38
97.0597	31
97.0654	21
119.0247	34
119.031	41
119.0372	39
119.0435	31
119.0497	22
136.037	44
136.0437	286
136.0504	715
136.0571	996
136.0638	999
136.0705	844
136.0771	668
136.0838	515
136.0905	389
136.0972	295
136.1039	228
136.1106	171
136.1173	123
136.1239	86
136.1306	56
136.1373	45
136.144	33
136.1507	23
334.3496	22
334.3601	30
334.3706	26
