Mass spectrum: TREHALOSE; LC-ESI-QFT; MS2; CE: 30eV;  [M-H]-
Name: TREHALOSE
Class: NA
Formula: C12H22O11
Exact mass: 342.11621
SMILES: OC[C@H]1O[C@H](O[C@H]2O[C@H](CO)[C@@H](O)[C@H](O)[C@H]2O)[C@H](O)[C@@H](O)[C@@H]1O
InChI: InChI=1S/C12H22O11/c13-1-3-5(15)7(17)9(19)11(21-3)23-12-10(20)8(18)6(16)4(2-14)22-12/h3-20H,1-2H2/t3-,4-,5-,6-,7+,8+,9-,10-,11-,12-/m1/s1
Instrument: Q-Exactive Orbitrap, Thermo Scientfic; Ultimate 3000 HPLC, Thermo Scientfic
Instrument type: LC-ESI-QFT
Ms type: MS2
Ion mode: NEGATIVE
Ionization: ESI
Collision energy: 30eV
Column name: Acquity CSHC18
Retention time: 0.590 min
Base peak: 341.1089
Precursor m/z: 341.1089
Precursor type: [M-H]-
Precursor intensity: 136
m/z	relative intensity
52.1167	24
52.4862	21
53.0131	21
53.7821	23
58.0086	24
59.0123	765
60.4068	25
61.4302	24
66.6713	21
68.0566	24
71.0104	33
71.0122	438
73.0277	39
83.741	27
88.1822	24
89.0227	999
89.2088	30
96.0884	30
101.0227	567
102.9471	160
106.5787	28
113.0227	272
119.0332	483
132.9221	33
136.9853	27
143.0336	58
146.937	344
161.0437	50
179.0551	123
190.9279	39
224.8602	274
252.8553	113
268.8503	457
341.1074	33
353.9739	28
