Mass spectrum: Deoxyadenosine; LC-ESI-ITFT; MS2; CE: 20;  [M-H]-
Name: Deoxyadenosine
Class: Nucleosides, nucleotides, and analogues; Purine nucleosides; Purine 2'-deoxyribonucleosides
Formula: C10H13N5O3
Exact mass: 251.10184
SMILES: NC1=NC=NC2=C1N=CN2[C@H]1C[C@H](O)[C@@H](CO)O1
InChI: InChI=1S/C10H13N5O3/c11-9-8-10(13-3-12-9)15(4-14-8)7-1-5(17)6(2-16)18-7/h3-7,16-17H,1-2H2,(H2,11,12,13)/t5-,6+,7+/m0/s1
Instrument: Thermo Scientific Q-Exactive Focus
Instrument type: LC-ESI-ITFT
Ms type: MS2
Ion mode: NEGATIVE
Ionization: ESI
Collision energy: 20
Column name: Acquity CSHC18
Retention time: 0.644 min
Base peak: 250.09456
Precursor m/z: 250.09456
Precursor type: [M-H]-
m/z	relative intensity
61.9871	5
92.0243	7
107.0352	21
112.9844	15
113.9878	8
134.0462	999
153.9213	2
193.9279	8
250.0945	18
250.1447	358
