Mass spectrum: Methylcysteine; ESI-TOF; MS2; CE: 6.0000000;  [M+H]+
Name: Methylcysteine
Class: NA
Formula: C4H9NO2S
Exact mass: 135.03540
SMILES: CSCC(N)C(O)=O
InChI: InChI=1S/C4H9NO2S/c1-8-2-3(5)4(6)7/h3H,2,5H2,1H3,(H,6,7)
Instrument: waters xevo g2 TOF
Instrument type: ESI-TOF
Ms type: MS2
Ion mode: POSITIVE
Ionization: ESI
Collision energy: 6.0000000
Column name: Acquity CSHC18
Retention time: 0.566 min
Base peak: 136.04340
Precursor m/z: 136.04340
Precursor type: [M+H]+
m/z	relative intensity
73.029	91
74.0326	2
74.9908	9
77.0063	17
99.9702	6
102.1281	5
119.0164	999
120.0193	58
121.0127	57
122.0163	2
129.0519	5
130.0084	2
130.9675	2
136.0431	9
139.9778	5
141.9592	114
143.96	14
144.965	1
149.9614	2
158.0243	3
178.1217	1
217.1052	2
241.0321	3
302.1941	1
309.0241	1
323.9901	7
346.98	1
481.0051	2
