Mass spectrum: coumarin; LC-ESI-ITFT; MS2; CE: 0.3;  [M+H]+
Name: coumarin
Class: coumarins
Formula: C9H6O2
Exact mass: 146.0368
SMILES: C1=CC=C2C(=C1)C=CC(=O)O2
InChI: InChI=1S/C9H6O2/c10-9-6-5-7-3-1-2-4-8(7)11-9/h1-6H
Instrument: LTQ-Orbitrap XL hybrid mass spectrometer (Thermo Scientific)
Instrument type: LC-ESI-ITFT
Ms type: MS2
Ion mode: POSITIVE
Ionization: ESI
Collision energy: 0.3
Column name: Acquity CSHC18
Retention time: 15.733 min
Base peak: 147.0442
Precursor m/z: 147.0442
Precursor type: [M+H]+
Precursor intensity: 771231.9
m/z	relative intensity
56.2257	6
70.2843	5
73.2139	5
81.9126	5
96.2939	6
102.18	5
103.0543	90
103.1314	6
103.1347	6
103.1377	6
105.9541	8
112.7473	5
126.8109	4
126.8232	4
132.6424	4
135.2862	4
147.0331	4
147.0341	5
147.0383	8
147.0444	999
