Mass spectrum: Solasodine; LC-ESI-QTOF; MS2; CE: 23.57 / 23.58;  [M+H]+
Name: Solasodine
Class: NA
Formula: C27H43NO2
Exact mass: 413.3294
SMILES: CC1CCC2(C(C3C(O2)CC4C3(CCC5C4CC=C6C5(CCC(C6)O)C)C)C)NC1
InChI: InChI=1S/C27H43NO2/c1-16-7-12-27(28-15-16)17(2)24-23(30-27)14-22-20-6-5-18-13-19(29)8-10-25(18,3)21(20)9-11-26(22,24)4/h5,16-17,19-24,28-29H,6-15H2,1-4H3
Instrument: Bruker MicrOTOF-Q
Instrument type: LC-ESI-QTOF
Ms type: MS2
Ion mode: POSITIVE
Ionization: ESI
Collision energy: 23.57 / 23.58
Column name: Acquity CSHC18
Retention time: NA
Base peak: 414.3367
Precursor m/z: 414.3367
Precursor type: [M+H]+
m/z	relative intensity
126.1279	6
145.1008	4
147.1165	5
157.1002	15
159.1167	10
171.1173	7
173.133	5
175.1116	10
197.1324	7
211.1482	8
213.1656	4
225.1629	4
253.1951	143
254.1984	25
271.205	147
272.2088	26
396.3263	134
397.3266	46
398.3291	4
414.3364	999
415.3402	285
416.3427	33
