Mass spectrum: 3-AMINO-4-HYDROXYBENZOATE; LC-ESI-QTOF; MS2; CE: 10;  [M+H]+
Name: 3-AMINO-4-HYDROXYBENZOATE
Class: NA
Formula: C7H7NO3
Exact mass: 153.04259
SMILES: C1=CC(=C(C=C1C(=O)O)N)O
InChI: InChI=1S/C7H7NO3/c8-5-3-4(7(10)11)1-2-6(5)9/h1-3,9H,8H2,(H,10,11)
Instrument: Agilent 6530Â Q-TOF LC/MS
Instrument type: LC-ESI-QTOF
Ms type: MS2
Ion mode: POSITIVE
Ionization: ESI
Collision energy: 10
Column name: NA
Retention time: 0.200 min
Base peak: 154.04916
Precursor m/z: 154.04916
Precursor type: [M+H]+
Precursor intensity: 84.5
m/z	relative intensity
53.0512	42
63.0228	42
65.0613	45
67.0525	49
78.0324	52
80.0757	53
82.0649	53
90.0481	93
92.0661	113
93.053	115
94.023	141
106.0434	175
108.0773	186
109.0596	188
110.0704	244
118.0413	376
136.073	506
154.1948	638
154.5332	913
154.6651	999
