Mass spectrum: 1-Methoxy-3-indolylmethyl-glucosinolate; LC-ESI-QTOF; MS2; CE: 50eV;  [M-H]-
Name: 1-Methoxy-3-indolylmethyl-glucosinolate
Class: indolic glucosinolate
Formula: C17H22N2O10S2
Exact mass: 478.0716
SMILES: O[C@H]1[C@@H](O)[C@@H](O)[C@H](S/C(CC2=CN(OC)C3=C2C=CC=C3)=N/OS(=O)(O)=O)O[C@@H]1CO
InChI: InChI=1S/C17H22N2O10S2/c1-27-19-7-9(10-4-2-3-5-11(10)19)6-13(18-29-31(24,25)26)30-17-16(23)15(22)14(21)12(8-20)28-17/h2-5,7,12,14-17,20-23H,6,8H2,1H3,(H,24,25,26)/b18-13+/t12-,14-,15-,16-,17+/m1/s1
Instrument: TIMS-TOF Pro, Bruker Daltonik; Elute UHPLC System, Bruker Daltonik
Instrument type: LC-ESI-QTOF
Ms type: MS2
Ion mode: NEGATIVE
Ionization: ESI
Collision energy: 50eV
Column name: Acquity CSHC18
Retention time: 8.297 min
Base peak: 477.0536
Precursor m/z: 477.0536
Precursor type: [M-H]-
Precursor intensity: 14109.89
m/z	relative intensity
74.8432	7
74.9892	53
79.9556	67
84.4309	7
95.9506	679
96.9587	999
97.9549	14
98.953	34
172.0537	7
248.7654	7
446.0394	249
447.0257	7
447.0457	61
448.0464	33
449.0415	6
477.0536	147
