Mass spectrum: 1-arachidoyl-2-hydroxy-sn-glycero-3-phosphocholine; ESI-TOF; MS2; CE: 6.0000000;  [M+H]+
Name: 1-arachidoyl-2-hydroxy-sn-glycero-3-phosphocholine
Class: NA
Formula: C28H58NO7P
Exact mass: 551.39509
SMILES: [H]OC([H])(C([H])([H])OC(=O)C([H])([H])C([H])([H])C([H])([H])C([H])([H])C([H])([H])C([H])([H])C([H])([H])C([H])([H])C([H])([H])C([H])([H])C([H])([H])C([H])([H])C([H])([H])C([H])([H])C([H])([H])C([H])([H])C([H])([H])C([H])([H])C([H])([H])[H])C([H])([H])OP(=O)([O-])OC([H])([H])C([H])([H])[N+](C([H])([H])[H])(C([H])([H])[H])C([H])([H])[H]
InChI: InChI=1S/C28H58NO7P/c1-5-6-7-8-9-10-11-12-13-14-15-16-17-18-19-20-21-22-28(31)34-25-27(30)26-36-37(32,33)35-24-23-29(2,3)4/h27,30H,5-26H2,1-4H3
Instrument: waters xevo g2 TOF
Instrument type: ESI-TOF
Ms type: MS2
Ion mode: POSITIVE
Ionization: ESI
Collision energy: 6.0000000
Column name: Acquity CSHC18
Retention time: 8.198 min
Base peak: 552.40309
Precursor m/z: 552.40309
Precursor type: [M+H]+
m/z	relative intensity
104.1078	19
148.5328	28
184.0734	5
240.0996	18
286.6743	25
287.1723	9
295.6802	451
296.181	151
296.6828	32
297.6755	10
303.6625	18
304.6674	11
337.6547	12
361.1499	7
487.2482	4
534.3915	7
535.3912	2
552.4026	999
553.406	327
554.4096	67
555.4111	8
571.3757	83
571.8781	53
572.3771	18
574.3851	187
575.3862	61
576.3872	12
579.3622	13
579.8616	7
580.3646	10
590.3506	15
636.353	22
847.0712	8
847.5754	7
1125.7766	12
1126.7806	7
1156.7071	5
