Mass spectrum: 4-Hydroxy-3,5-dimethoxybenzoic acid; LC-ESI-QTOF; MS2; CE: 15.00;  [M+H]+
Name: 4-Hydroxy-3,5-dimethoxybenzoic acid
Class: NA
Formula: C9H10O5
Exact mass: 198.0528
SMILES: COC1=CC(=CC(=C1O)OC)C(=O)O
InChI: InChI=1S/C9H10O5/c1-13-6-3-5(9(11)12)4-7(14-2)8(6)10/h3-4,10H,1-2H3,(H,11,12)
Instrument: Bruker MicrOTOF-Q
Instrument type: LC-ESI-QTOF
Ms type: MS2
Ion mode: POSITIVE
Ionization: ESI
Collision energy: 15.00
Column name: Acquity CSHC18
Retention time: NA
Base peak: 199.0601
Precursor m/z: 199.0601
Precursor type: [M+H]+
m/z	relative intensity
110.0392	2
120.0211	6
121.0284	15
123.0438	23
125.0232	141
126.0278	6
127.0379	1
137.0239	7
138.0294	1
139.0405	8
139.4342	1
139.9297	3
139.9716	1
140.0465	999
140.1593	1
140.3119	1
140.3926	1
140.466	2
141.0505	72
142.0621	2
148.0157	12
149.0324	4
153.0538	21
154.062	3
155.0695	22
156.0731	3
166.026	10
167.0315	12
168.0396	1
181.0494	160
182.0532	19
183.0282	16
184.0392	2
198.0529	9
199.0623	2
199.1502	1
