Mass spectrum: Oleoyl-L-carnitine hydrochloride; ESI-TOF; MS2; CE: 0.6458333;  [M+H]+
Name: Oleoyl-L-carnitine hydrochloride
Class: NA
Formula: C25H47NO4
Exact mass: 425.35051
SMILES: CCCCCCCC\C=C/CCCCCCCC(=O)O[C@H]([N+](C)(C)C)CCC([O-])=O
InChI: InChI=1S/C25H47NO4/c1-5-6-7-8-9-10-11-12-13-14-15-16-17-18-19-20-25(29)30-23(26(2,3)4)21-22-24(27)28/h12-13,23H,5-11,14-22H2,1-4H3/b13-12-/t23-/m0/s1
Instrument: waters xevo g2 TOF
Instrument type: ESI-TOF
Ms type: MS2
Ion mode: POSITIVE
Ionization: ESI
Collision energy: 0.6458333
Column name: Acquity CSHC18
Retention time: 4.764 min
Base peak: 426.35851
Precursor m/z: 426.35851
Precursor type: [M+H]+
m/z	relative intensity
60.082	27
69.0701	7
71.0863	7
81.0706	18
83.0861	19
85.0656	361
86.0328	63
93.0696	4
95.0857	28
97.1014	26
99.0456	11
107.0856	9
109.1014	12
111.1173	13
121.1018	32
123.1169	13
125.0965	11
135.117	36
137.1322	3
139.1123	16
144.1023	94
145.1061	6
149.1329	24
151.1481	7
153.1281	11
157.0498	29
163.1482	21
165.1655	6
166.0848	7
167.1438	9
177.1642	15
181.1595	14
191.1799	5
195.1745	7
209.1915	8
227.1295	12
241.1434	23
247.2427	40
248.2464	8
255.1603	30
265.2538	75
266.2554	11
269.1915	37
270.1795	5
283.1914	34
284.1949	8
297.2072	36
298.2092	4
311.2226	32
312.2262	4
325.2393	11
367.2857	80
368.2878	19
389.2665	86
390.2703	10
425.2447	19
426.3038	999
427.3016	180
