Mass spectrum: 13,14-dihydro-15-keto Prostaglandin D2; ESI-TOF; MS2; CE: 6.0000000;  [M+H]+
Name: 13,14-dihydro-15-keto Prostaglandin D2
Class: NA
Formula: C20H32O5
Exact mass: 352.22497
SMILES: CCCCCC(=O)CC[C@H]1C(=O)CC(O)C1C/C=C\CCCC(=O)O
InChI: InChI=1S/C20H32O5/c1-2-3-6-9-15(21)12-13-17-16(18(22)14-19(17)23)10-7-4-5-8-11-20(24)25/h4,7,16-18,22H,2-3,5-6,8-14H2,1H3,(H,24,25)/b7-4-/t16?,17-,18?/m1/s1
Instrument: waters xevo g2 TOF
Instrument type: ESI-TOF
Ms type: MS2
Ion mode: POSITIVE
Ionization: ESI
Collision energy: 6.0000000
Column name: Acquity CSHC18
Retention time: 3.634 min
Base peak: 353.23297
Precursor m/z: 353.23297
Precursor type: [M+H]+
m/z	relative intensity
129.9807	3
161.1304	1
165.0558	4
174.0984	11
178.0834	8
189.1286	5
191.1068	11
196.0916	61
196.5951	20
203.104	7
205.1595	51
205.5999	3
212.6071	3
215.143	6
219.1371	10
221.1142	4
223.1701	4
233.1541	40
234.158	6
251.1634	48
252.167	4
281.1887	15
299.2009	115
304.2998	6
317.2108	684
318.2131	143
319.2164	13
335.2199	999
336.2217	187
337.2296	24
349.2393	3
353.1758	204
354.2337	81
