Mass spectrum: N-Nitrosotomatidin; APCI-ITFT; MS2; CE: 35 CID;  [M+H]+
Name: N-Nitrosotomatidin
Class: NA
Formula: C27H44N2O3
Exact mass: 444.33519
SMILES: C[C@@]12[C@](CC[C@]3([H])[C@@]([H])2CC[C@@]4(C)[C@@]3([H])C[C@@]5([H])[C@]4([H])[C@H](C)C6(N(N=O)C[C@](C)([H])CC6)O5)([H])C[C@@H](O)CC1
InChI: InChI=1S/C27H44N2O3/c1-16-7-12-27(29(15-16)28-31)17(2)24-23(32-27)14-22-20-6-5-18-13-19(30)8-10-25(18,3)21(20)9-11-26(22,24)4/h16-24,30H,5-15H2,1-4H3/t16-,17-,18-,19-,20+,21-,22-,23-,24-,25-,26-,27?/m0/s1
Instrument: Orbitrap Elite
Instrument type: APCI-ITFT
Ms type: MS2
Ion mode: POSITIVE
Ionization: APCI
Collision energy: 35 CID
Column name: Acquity CSHC18
Retention time: 0.090 min
Base peak: 445.34190
Precursor m/z: 445.34190
Precursor type: [M+H]+
Precursor intensity: 10495110
m/z	relative intensity
185.1333	17
205.159	7
253.1948	33
271.2052	43
293.2269	24
325.2516	16
380.2528	16
384.3254	26
387.3493	244
410.305	23
412.3204	999
