Mass spectrum: MAG 18:3; LC-ESI-QTOF; MS2; CE: 20-40eV;  [M+H]+
Name: MAG 18:3
Class: glycerolipid
Formula: C21H36O4
Exact mass: 352.2614
SMILES: CCC(=C(CC(=C(CC(=C(CCCCCCCC(=O)OCC(CO)O)[H])[H])[H])[H])[H])[H]
InChI: InChI=1S/C21H36O4/c1-2-3-4-5-6-7-8-9-10-11-12-13-14-15-16-17-21(24)25-19-20(23)18-22/h3-4,6-7,9-10,20,22-23H,2,5,8,11-19H2,1H3
Instrument: Impact II, Bruker; Dionex 3000, Thermo Scientific
Instrument type: LC-ESI-QTOF
Ms type: MS2
Ion mode: POSITIVE
Ionization: ESI
Collision energy: 20-40eV
Column name: Acquity CSHC18
Retention time: 22.331 min
Base peak: 353.2671
Precursor m/z: 353.2671
Precursor type: [M+H]+
Precursor intensity: 3651.62
m/z	relative intensity
95.0846	670
103.0529	257
107.0487	219
107.0842	219
109.0988	244
261.2186	999
324.2916	590
353.2687	257
