Mass spectrum: Naringenin-7-O-rutinoside; LC-ESI-QTOF; MS2; CE: 50eV;  [M-H]-
Name: Naringenin-7-O-rutinoside
Class: Flavanone
Formula: C27H32O14
Exact mass: 580.1792
SMILES: CC1C(C(C(C(O1)OCC2C(C(C(C(O2)OC3=CC(=C4C(=O)CC(OC4=C3)C5=CC=C(C=C5)O)O)O)O)O)O)O)O
InChI: InChI=1S/C27H32O14/c1-10-20(31)22(33)24(35)26(38-10)37-9-18-21(32)23(34)25(36)27(41-18)39-13-6-14(29)19-15(30)8-16(40-17(19)7-13)11-2-4-12(28)5-3-11/h2-7,10,16,18,20-29,31-36H,8-9H2,1H3
Instrument: TIMS-TOF Pro, Bruker Daltonik; Elute UHPLC System, Bruker Daltonik
Instrument type: LC-ESI-QTOF
Ms type: MS2
Ion mode: NEGATIVE
Ionization: ESI
Collision energy: 50eV
Column name: Acquity CSHC18
Retention time: 5.512 min
Base peak: 579.1637
Precursor m/z: 579.1637
Precursor type: [M-H]-
Precursor intensity: 243241
m/z	relative intensity
65.0022	3
83.0146	2
93.0329	8
94.0363	1
101.0252	1
107.0132	11
107.3527	1
108.0203	1
108.9926	1
119.0481	68
120.0532	1
121.0261	1
123.2916	1
125.0221	9
136.0132	1
145.0286	6
151.0018	279
151.3488	1
152.0033	10
153.008	1
164.0099	3
165.019	1
177.0157	9
271.0567	17
280.5697	1
281.1299	1
284.5666	1
285.8127	1
289.7312	1
293.4359	2
308.1718	1
309.1913	1
314.9486	1
321.7368	1
340.1588	1
373.085	2
433.1316	2
459.1087	23
460.1126	3
461.1211	1
578.7274	1
578.8374	1
579.0451	1
579.1675	999
579.3572	1
579.5773	3
