Mass spectrum: Cysteineglutathione disulfide; ESI-TOF; MS2; CE: 6.0000000;  [M+H]+
Name: Cysteineglutathione disulfide
Class: NA
Formula: C13H22N4O8S2
Exact mass: 426.08791
SMILES: NC(CCC(=O)NC(CSSCC(N)C(O)=O)C(=O)NCC(O)=O)C(O)=O
InChI: InChI=1S/C13H22N4O8S2/c14-6(12(22)23)1-2-9(18)17-8(11(21)16-3-10(19)20)5-27-26-4-7(15)13(24)25/h6-8H,1-5,14-15H2,(H,16,21)(H,17,18)(H,19,20)(H,22,23)(H,24,25)
Instrument: waters xevo g2 TOF
Instrument type: ESI-TOF
Ms type: MS2
Ion mode: POSITIVE
Ionization: ESI
Collision energy: 6.0000000
Column name: Acquity CSHC18
Retention time: 0.572 min
Base peak: 427.09591
Precursor m/z: 427.09591
Precursor type: [M+H]+
m/z	relative intensity
84.0451	1
84.0458	1
96.9612	138
96.9615	78
122.0275	1
129.0528	94
130.0505	202
142.0299	30
149.002	26
162.0223	81
177.0332	74
179.0493	327
231.0435	1
231.0449	1
233.0603	258
237.0355	123
245.0594	71
245.0603	47
292.0419	77
298.0536	460
308.0909	388
339.0541	24
352.0614	40
427.0954	999
427.0971	337
428.0982	202
429.0931	92
