Mass spectrum: N-ACETYLASPARTATE; LC-ESI-QFT; MS2; CE: 30eV;  [M+H]+
Name: N-ACETYLASPARTATE
Class: NA
Formula: C6H9NO5
Exact mass: 175.04807
SMILES: CC(=O)N[C@@H](CC(O)=O)C(O)=O
InChI: InChI=1S/C6H9NO5/c1-3(8)7-4(6(11)12)2-5(9)10/h4H,2H2,1H3,(H,7,8)(H,9,10)(H,11,12)/t4-/m0/s1
Instrument: Q-Exactive Orbitrap, Thermo Scientfic; Ultimate 3000 HPLC, Thermo Scientfic
Instrument type: LC-ESI-QFT
Ms type: MS2
Ion mode: POSITIVE
Ionization: ESI
Collision energy: 30eV
Column name: Acquity CSHC18
Retention time: 0.719 min
Base peak: 176.0554
Precursor m/z: 176.0554
Precursor type: [M+H]+
Precursor intensity: 135
m/z	relative intensity
50.6216	1
50.6633	1
52.1837	1
52.4411	1
55.9351	2
58.0697	1
60.0451	24
61.7498	1
67.7451	1
70.0295	66
73.7974	1
74.0244	151
74.0607	1
78.6666	1
80.5663	1
85.5388	1
87.2999	1
88.04	715
89.0433	6
91.5876	1
98.0243	3
99.0082	7
102.2606	1
114.9721	14
116.0347	272
117.0379	2
117.0551	1
125.0031	1
127.1308	1
128.9514	1
130.0502	148
131.0535	3
131.9875	1
134.0451	999
135.0484	18
135.9457	2
140.0345	2
149.0235	1
153.9563	2
158.0452	113
158.1181	14
159.0487	2
168.4762	1
176.0557	17
176.128	2
178.7011	1
