Mass spectrum: CITRULLINE; LC-ESI-QTOF; MS2; CE: 20;  [M+H]+
Name: CITRULLINE
Class: NA
Formula: C6H13N3O3
Exact mass: 175.0957
SMILES: N[C@@H](CCCNC(N)=O)C(O)=O
InChI: InChI=1S/C6H13N3O3/c7-4(5(10)11)2-1-3-9-6(8)12/h4H,1-3,7H2,(H,10,11)(H3,8,9,12)/t4-/m0/s1
Instrument: Agilent 6530Â Q-TOF LC/MS
Instrument type: LC-ESI-QTOF
Ms type: MS2
Ion mode: POSITIVE
Ionization: ESI
Collision energy: 20
Column name: NA
Retention time: 0.200 min
Base peak: 176.10266
Precursor m/z: 176.10266
Precursor type: [M+H]+
Precursor intensity: 157.5
m/z	relative intensity
70.0662	999
113.0736	288
