Mass spectrum: 15(S)-15-methyl Prostaglandin D2; ESI-TOF; MS2; CE: 6.0000000;  [M+H]+
Name: 15(S)-15-methyl Prostaglandin D2
Class: NA
Formula: C21H34O5
Exact mass: 366.24062
SMILES: CCCCC[C@](C)(O)\C=C\[C@H]1C(=O)CC(O)C1C/C=C\CCCC(=O)O
InChI: InChI=1S/C21H34O5/c1-3-4-9-13-21(2,26)14-12-17-16(18(22)15-19(17)23)10-7-5-6-8-11-20(24)25/h5,7,12,14,16-18,22,26H,3-4,6,8-11,13,15H2,1-2H3,(H,24,25)/b7-5-,14-12+/t16?,17-,18?,21+/m1/s1
Instrument: waters xevo g2 TOF
Instrument type: ESI-TOF
Ms type: MS2
Ion mode: POSITIVE
Ionization: ESI
Collision energy: 6.0000000
Column name: Acquity CSHC18
Retention time: 3.747 min
Base peak: 367.24862
Precursor m/z: 367.24862
Precursor type: [M+H]+
m/z	relative intensity
131.0863	3
134.9546	2
145.1018	3
149.0972	1
166.0644	2
173.0972	3
177.0903	3
185.0957	34
187.1492	11
194.0972	98
194.5974	21
199.146	2
201.1636	6
203.143	20
205.1566	12
207.1057	3
215.1068	9
219.1448	6
221.1442	17
229.1598	16
231.1698	4
235.1275	1
237.1101	6
245.2249	2
248.1718	16
267.2106	4
280.04	19
289.2184	6
295.2054	36
309.1989	6
313.2166	340
314.219	66
322.1226	25
331.2766	484
332.2312	231
333.2345	29
349.238	999
350.2454	5
351.2436	27
368.2089	11
