Mass spectrum: GLYCOCHENODEOXYCHOLATE; LC-ESI-QTOF; MS2; CE: 20;  [M-H]-
Name: GLYCOCHENODEOXYCHOLATE
Class: NA
Formula: C26H43NO5
Exact mass: 449.31412
SMILES: [H][C@@]1(CC[C@@]2([H])[C@]3([H])[C@H](O)C[C@]4([H])C[C@H](O)CC[C@]4(C)[C@@]3([H])CC[C@]12C)[C@H](C)CCC(=O)NCC(O)=O
InChI: InChI=1S/C26H43NO5/c1-15(4-7-22(30)27-14-23(31)32)18-5-6-19-24-20(9-11-26(18,19)3)25(2)10-8-17(28)12-16(25)13-21(24)29/h15-21,24,28-29H,4-14H2,1-3H3,(H,27,30)(H,31,32)/t15-,16+,17-,18-,19+,20+,21-,24+,25+,26-/m1/s1
Instrument: Agilent 6530Â Q-TOF LC/MS
Instrument type: LC-ESI-QTOF
Ms type: MS2
Ion mode: NEGATIVE
Ionization: ESI
Collision energy: 20
Column name: NA
Retention time: 0.200 min
Base peak: 448.30457
Precursor m/z: 448.30457
Precursor type: [M-H]-
Precursor intensity: 121
m/z	relative intensity
74.0263	123
448.3453	203
449.299	999
