Mass spectrum: Alpha-Lactose; ESI-TOF; MS2; CE: 0.6458333;  [M+H]+
Name: Alpha-Lactose
Class: NA
Formula: C12H22O11
Exact mass: 342.11621
SMILES: OCC1OC(OC2C(CO)OC(O)C(O)C2O)C(O)C(O)C1O
InChI: InChI=1S/C12H22O11/c13-1-3-5(15)6(16)9(19)12(22-3)23-10-4(2-14)21-11(20)8(18)7(10)17/h3-20H,1-2H2
Instrument: waters xevo g2 TOF
Instrument type: ESI-TOF
Ms type: MS2
Ion mode: POSITIVE
Ionization: ESI
Collision energy: 0.6458333
Column name: Acquity CSHC18
Retention time: 0.556 min
Base peak: 343.12421
Precursor m/z: 343.12421
Precursor type: [M+H]+
m/z	relative intensity
73.0302	28
91.0398	99
97.0291	144
129.0519	1
138.9906	1
138.991	1
142.9614	1
145.0501	99
154.9908	1
163.0606	152
204.0867	1
233.9837	1
325.1131	38
337.0207	24
343.1255	1
344.1271	1
362.1011	24
365.1063	999
366.1114	67
396.036	34
397.0427	1
456.0572	130
685.2427	1
707.22	18
708.226	1
709.2095	1
738.1509	1
739.1587	1
740.1578	1
