Mass spectrum: Anisaldehyde; LC-ESI-QTOF; MS2; CE: 50eV;  [M+H]+
Name: Anisaldehyde
Class: Benzaldehyde derivative
Formula: C8H8O2
Exact mass: 136.0524
SMILES: COC1=CC=C(C=C1)C=O
InChI: InChI=1S/C8H8O2/c1-10-8-4-2-7(6-9)3-5-8/h2-6H,1H3
Instrument: TIMS-TOF Pro, Bruker Daltonik; Elute UHPLC System, Bruker Daltonik
Instrument type: LC-ESI-QTOF
Ms type: MS2
Ion mode: POSITIVE
Ionization: ESI
Collision energy: 50eV
Column name: Acquity CSHC18
Retention time: 9.490 min
Base peak: 137.0589
Precursor m/z: 137.0589
Precursor type: [M+H]+
Precursor intensity: 153370.9
m/z	relative intensity
39.52	9
71.6277	9
91.0537	167
95.045	136
114.9632	9
122.0368	597
137.0236	170
137.0589	999
