Mass spectrum: Alpha-Aspartyl-lysine; ESI-TOF; MS2; CE: 0.6458333;  [M+H]+
Name: Alpha-Aspartyl-lysine
Class: NA
Formula: C10H19N3O5
Exact mass: 261.13247
SMILES: NCCCCC(NC(=O)C(N)CC(O)=O)C(O)=O
InChI: InChI=1S/C10H19N3O5/c11-4-2-1-3-7(10(17)18)13-9(16)6(12)5-8(14)15/h6-7H,1-5,11-12H2,(H,13,16)(H,14,15)(H,17,18)
Instrument: waters xevo g2 TOF
Instrument type: ESI-TOF
Ms type: MS2
Ion mode: POSITIVE
Ionization: ESI
Collision energy: 0.6458333
Column name: Acquity CSHC18
Retention time: 0.473 min
Base peak: 262.14047
Precursor m/z: 262.14047
Precursor type: [M+H]+
m/z	relative intensity
84.0818	999
84.0819	86
85.0848	45
88.0404	76
97.0408	15
101.1078	9
111.0922	69
112.0762	11
128.0717	47
129.1029	357
130.0091	1
130.0865	22
130.087	331
131.0904	17
139.0855	14
139.0872	115
140.0907	3
147.1135	180
157.0975	35
184.1095	10
209.0926	62
226.1191	18
244.1304	15
262.1406	195
263.1439	20
