Mass spectrum: L-Arabitol; ESI-TOF; MS2; CE: 0.6458333;  [M+H]+
Name: L-Arabitol
Class: NA
Formula: C5H12O5
Exact mass: 152.06847
SMILES: OCC(O)C(O)C(O)CO
InChI: InChI=1S/C5H12O5/c6-1-3(8)5(10)4(9)2-7/h3-10H,1-2H2
Instrument: waters xevo g2 TOF
Instrument type: ESI-TOF
Ms type: MS2
Ion mode: POSITIVE
Ionization: ESI
Collision energy: 0.6458333
Column name: Acquity CSHC18
Retention time: 0.564 min
Base peak: 153.07647
Precursor m/z: 153.07647
Precursor type: [M+H]+
m/z	relative intensity
57.0346	1
69.0344	182
71.0494	1
73.0294	60
83.9665	20
85.0285	23
85.9458	49
95.008	60
96.0158	133
97.0277	21
99.0103	308
100.0486	1
102.016	55
102.9486	79
104.0134	44
105.0212	253
110.0133	241
110.9758	53
111.9613	104
112.9913	83
113.9836	166
114.9479	174
116.5299	1
117.038	63
124.0287	62
124.9562	65
126.0268	74
126.9484	56
128.9646	119
131.9885	260
132.9587	96
135.0657	1
136.0688	1
137.9881	1
140.0009	699
141.0316	340
142.0121	11
143.0021	35
144.9897	48
149.0181	1
150.0188	1
151.0162	1
153.0764	31
154.0054	27
155.0015	54
155.9738	1
158.0258	158
159.0541	123
160.981	56
162.0365	99
163.0452	1
164.0614	1
165.0769	1
166.9796	12
169.9671	274
170.9742	237
172.0148	67
172.5516	1
173.0131	32
173.5513	1
174.0464	1
175.0579	223
176.0191	82
177.0494	19
179.5388	1
180.0366	1
180.5369	1
181.0096	1
181.5378	1
182.0349	1
183.0316	7
183.9824	42
187.0552	1
187.5568	1
187.9774	999
188.9811	1
191.0228	238
192.0475	1
195.0444	63
196.0117	31
199.9773	34
201.9927	52
203.9969	1
205.0357	1
205.9889	76
206.9958	224
207.4988	1
208.996	84
216.0081	1
217.1043	1
222.0017	1
223.0387	1
223.9979	255
237.0053	17
238.0428	81
238.5737	1
239.0186	1
247.0141	1
247.9999	1
250.0134	1
251.993	1
253.077	1
256.9986	1
258.1711	1
258.8865	1
260.0179	1
262.014	217
263.0175	1
266.0091	1
267.0161	69
269.0165	46
273.0155	1
278.0085	57
280.0248	1
285.0166	10
292.0248	1
304.0933	23
304.5924	1
305.0892	1
307.0999	403
308.1038	38
309.2942	1
316.9433	43
323.0643	60
329.1021	95
330.1047	1
337.1064	1
338.0291	1
339.0354	1
341.0381	23
343.091	1
354.0638	1
356.0611	1
357.067	1
358.0559	38
359.0629	160
360.0638	1
361.0642	1
363.0597	1
367.1214	18
368.0413	1
374.947	1
388.0637	1
391.0729	1
398.0503	15
406.0838	1
407.9962	1
409.0121	1
421.0275	1
422.9713	1
439.1436	1
452.98	1
490.0969	1
622.1352	1
623.1423	1
627.95	1
