Mass spectrum: Coumarin; LC-ESI-QTOF; MS2; CE: 50eV;  [M+H]+
Name: Coumarin
Class: Coumarin
Formula: C9H6O2
Exact mass: 146.0368
SMILES: C1=CC=C2C(=C1)C=CC(=O)O2
InChI: InChI=1S/C9H6O2/c10-9-6-5-7-3-1-2-4-8(7)11-9/h1-6H
Instrument: TIMS-TOF Pro, Bruker Daltonik; Elute UHPLC System, Bruker Daltonik
Instrument type: LC-ESI-QTOF
Ms type: MS2
Ion mode: POSITIVE
Ionization: ESI
Collision energy: 50eV
Column name: Acquity CSHC18
Retention time: 6.368 min
Base peak: 147.0442
Precursor m/z: 147.0442
Precursor type: [M+H]+
Precursor intensity: 7903.06
m/z	relative intensity
51.0217	157
91.054	774
95.0499	104
103.0558	294
147.0442	999
