Mass spectrum: Camalexin; LC-ESI-QTOF; MS2; CE: 15.00;  [M-H]-
Name: Camalexin
Class: NA
Formula: C11H8N2S
Exact mass: 200.0408
SMILES: C1=CC=C2C(=C1)C(=CN2)C3=NC=CS3
InChI: InChI=1S/C11H8N2S/c1-2-4-10-8(3-1)9(7-13-10)11-12-5-6-14-11/h1-7,13H
Instrument: Bruker MicrOTOF-Q
Instrument type: LC-ESI-QTOF
Ms type: MS2
Ion mode: NEGATIVE
Ionization: ESI
Collision energy: 15.00
Column name: Acquity CSHC18
Retention time: NA
Base peak: 199.0335
Precursor m/z: 199.0335
Precursor type: [M-H]-
m/z	relative intensity
141.05	999
199.03	253
