Mass spectrum: mulberrin; LC-ESI-ITFT; MS2; CE: 0.3;  [M-H]-
Name: mulberrin
Class: flavones
Formula: C25H26O6
Exact mass: 422.1729
SMILES: CC(=CCC1=C2C(=C(C=C1O)O)C(=O)C(=C(O2)C3=C(C=C(C=C3)O)O)CC=C(C)C)C
InChI: InChI=1S/C25H26O6/c1-13(2)5-8-17-20(28)12-21(29)22-23(30)18(9-6-14(3)4)24(31-25(17)22)16-10-7-15(26)11-19(16)27/h5-7,10-12,26-29H,8-9H2,1-4H3
Instrument: LTQ-Orbitrap XL hybrid mass spectrometer (Thermo Scientific)
Instrument type: LC-ESI-ITFT
Ms type: MS2
Ion mode: NEGATIVE
Ionization: ESI
Collision energy: 0.3
Column name: Acquity CSHC18
Retention time: 12.900 min
Base peak: 421.1654
Precursor m/z: 421.1654
Precursor type: [M-H]-
Precursor intensity: 58536750
m/z	relative intensity
107.4554	3
108.2067	3
119.7986	3
121.8459	3
130.4888	2
139.7209	3
149.3116	3
157.0872	4
166.974	5
188.2064	3
193.0873	54
199.7189	3
219.0636	5
227.0715	34
296.8904	4
297.04	12
298.994	3
299.0128	3
299.0411	4
299.0572	4
299.1286	999
299.2076	3
301.3891	5
309.0399	40
311.1283	124
352.0948	53
353.9748	3
377.176	10
384.0838	12
403.1533	7
404.8121	3
