Mass spectrum: N-ACETYLGLUCOSAMINE; LC-ESI-QTOF; MS2; CE: 40;  [M-H]-
Name: N-ACETYLGLUCOSAMINE
Class: NA
Formula: C8H15NO6
Exact mass: 221.08994
SMILES: CC(=O)N[C@H]1C(O)O[C@H](CO)[C@@H](O)[C@@H]1O
InChI: InChI=1S/C8H15NO6/c1-3(11)9-5-7(13)6(12)4(2-10)15-8(5)14/h4-8,10,12-14H,2H2,1H3,(H,9,11)/t4-,5-,6-,7-,8?/m1/s1
Instrument: Agilent 6530Â Q-TOF LC/MS
Instrument type: LC-ESI-QTOF
Ms type: MS2
Ion mode: NEGATIVE
Ionization: ESI
Collision energy: 40
Column name: NA
Retention time: 0.200 min
Base peak: 220.08507
Precursor m/z: 220.08507
Precursor type: [M-H]-
Precursor intensity: 128
m/z	relative intensity
41.0064	293
59.0217	432
121.0645	999
