Mass spectrum: CAY10580; ESI-TOF; MS2; CE: 6.0000000;  [M+H]+
Name: CAY10580
Class: NA
Formula: C19H35NO4
Exact mass: 341.25661
SMILES: CCCCCC(O)CCC1CCC(=O)N1CCCCCCC(=O)O
InChI: InChI=1S/C19H35NO4/c1-2-3-6-9-17(21)13-11-16-12-14-18(22)20(16)15-8-5-4-7-10-19(23)24/h16-17,21H,2-15H2,1H3,(H,23,24)
Instrument: waters xevo g2 TOF
Instrument type: ESI-TOF
Ms type: MS2
Ion mode: POSITIVE
Ionization: ESI
Collision energy: 6.0000000
Column name: Acquity CSHC18
Retention time: 3.679 min
Base peak: 342.26461
Precursor m/z: 342.26461
Precursor type: [M+H]+
m/z	relative intensity
129.9597	2
181.6043	33
190.6093	16
195.1216	8
202.1157	8
212.1289	21
306.1905	64
307.1939	11
320.1538	58
321.1544	3
324.2536	560
325.2579	72
326.2569	10
342.2642	999
343.2689	241
