Mass spectrum: N-Acetylmannosamine; ESI-TOF; MS2; CE: 6.0000000;  [M+H]+
Name: N-Acetylmannosamine
Class: NA
Formula: C8H15NO6
Exact mass: 221.08994
SMILES: CC(=O)NC1C(O)OC(CO)C(O)C1O
InChI: InChI=1S/C8H15NO6/c1-3(11)9-5-7(13)6(12)4(2-10)15-8(5)14/h4-8,10,12-14H,2H2,1H3,(H,9,11)
Instrument: waters xevo g2 TOF
Instrument type: ESI-TOF
Ms type: MS2
Ion mode: POSITIVE
Ionization: ESI
Collision energy: 6.0000000
Column name: Acquity CSHC18
Retention time: 0.570 min
Base peak: 222.09794
Precursor m/z: 222.09794
Precursor type: [M+H]+
m/z	relative intensity
84.0449	53
96.0448	17
98.0602	22
113.9643	82
126.0554	372
130.0084	23
138.0216	999
139.0578	35
141.9592	439
144.0659	369
152.9947	20
155.9923	16
158.0033	41
168.0661	283
169.0692	26
178.1236	10
186.0763	571
187.0804	62
197.0019	10
204.0872	848
205.091	60
214.9885	39
215.9962	41
222.0984	110
