Mass spectrum: 3-Methylthiobutyl glucosinolate; LC-ESI-ITFT; MS2; CE: 30;  [M+H]+
Name: 3-Methylthiobutyl glucosinolate
Class: NA
Formula: C11H21NO10S3
Exact mass: 423.0328
SMILES: CSCCCC(=NOS(=O)(=O)O)SOC1C(C(C(C(O1)CO)O)O)O
InChI: InChI=1S/C11H21NO10S3/c1-23-4-2-3-7(12-22-25(17,18)19)24-21-11-10(16)9(15)8(14)6(5-13)20-11/h6,8-11,13-16H,2-5H2,1H3,(H,17,18,19)
Instrument: q exactive focus thermo
Instrument type: LC-ESI-ITFT
Ms type: MS2
Ion mode: POSITIVE
Ionization: ESI
Collision energy: 30
Column name: Acquity CSHC18
Retention time: 1.097 min
Base peak: 424.0396
Precursor m/z: 424.0396
Precursor type: [M+H]+
Precursor intensity: 4816074
m/z	relative intensity
100.0578	7
101.0423	8
102.0467	10
102.9856	10
105.0386	10
106.0697	12
107.0678	15
108.0239	15
109.0515	15
110.0451	16
111.0199	16
112.0559	16
113.0255	16
115.0602	17
116.0173	17
117.0144	18
117.9528	18
118.0614	18
119.0188	18
120.0365	19
121.0468	19
122.0656	20
123.0623	23
125.0234	23
126.0729	24
128.0479	24
129.0075	24
130.0669	25
130.9878	25
133.0147	26
134.0528	27
135.0015	27
136.0421	28
137.0437	28
138.9937	28
141.0017	29
142.0411	31
146.9766	32
149.0285	33
150.0662	33
150.9664	35
152.0694	37
153.0308	38
154.0376	38
155.0526	38
156.989	40
157.9782	41
158.0886	41
158.986	41
160.9637	41
164.9767	42
167.0444	44
168.9855	54
169.9965	55
171.0003	58
173.0151	60
174.9817	64
176.9875	65
178.9994	69
185.0157	69
185.9819	69
187.9945	69
201.0215	81
203.9953	87
204.998	101
210.9959	102
217.9626	106
219.9693	107
231.9852	108
233.0159	110
235.9716	110
236.991	119
237.9664	123
245.9996	152
248.0177	206
257.9704	229
275.9645	251
279.0313	368
297.0007	790
299.045	999
