Mass spectrum: histamine; LC-ESI-QTOF; MS2; CE: -10, -35, -60V;  [M-H]-
Name: histamine
Class: NA
Formula: C5H9N3
Exact mass: 111.0796
SMILES: C1=C(NC=N1)CCN
InChI: InChI=1S/C5H9N3/c6-2-1-5-3-7-4-8-5/h3-4H,1-2,6H2,(H,7,8)
Instrument: TripleToF 5600; Sciex
Instrument type: LC-ESI-QTOF
Ms type: MS2
Ion mode: NEGATIVE
Ionization: ESI
Collision energy: -10, -35, -60V
Column name: Acquity CSHC18
Retention time: 0.597 min
Base peak: 110.0728
Precursor m/z: 110.0728
Precursor type: [M-H]-
Precursor intensity: 23064.81
m/z	relative intensity
80.0389	115
81.0461	106
97.0452	5
109.041	27
110.0708	999
