Mass spectrum: Myrtenal; LC-ESI-QTOF; MS2; CE: 15.00;  [M+H]+
Name: Myrtenal
Class: NA
Formula: C10H14O
Exact mass: 150.1045
SMILES: CC1(C2CC=C(C1C2)C=O)C
InChI: InChI=1S/C10H14O/c1-10(2)8-4-3-7(6-11)9(10)5-8/h3,6,8-9H,4-5H2,1-2H3
Instrument: Bruker MicrOTOF-Q
Instrument type: LC-ESI-QTOF
Ms type: MS2
Ion mode: POSITIVE
Ionization: ESI
Collision energy: 15.00
Column name: Acquity CSHC18
Retention time: NA
Base peak: 151.1117
Precursor m/z: 151.1117
Precursor type: [M+H]+
m/z	relative intensity
91.0497	470
92.0551	36
95.0848	148
103.0523	125
105.0675	999
106.0689	75
107.0832	822
108.0515	61
108.0883	53
108.9106	35
109.0615	144
109.1021	112
110.9112	34
115.0567	88
116.0427	48
117.065	99
118.0783	74
121.0973	24
122.0629	39
123.0893	93
124.1098	40
129.0781	33
131.0809	238
132.0866	42
133.0974	250
147.0341	33
151.1042	80
