Mass spectrum: Quercetin; LC-ESI-QFT; MS2; CE: NCE_15_30_67;  [M-H]-
Name: Quercetin
Class: NA
Formula: C15H10O7
Exact mass: 302.0427
SMILES: C1=CC(=C(C=C1C2=C(C(=O)C3=C(C=C(C=C3O2)O)O)O)O)O
InChI: InChI=1S/C15H10O7/c16-7-4-10(19)12-11(5-7)22-15(14(21)13(12)20)6-1-2-8(17)9(18)3-6/h1-5,16-19,21H
Instrument: Thermo_Qexactive_Plus
Instrument type: LC-ESI-QFT
Ms type: MS2
Ion mode: NEGATIVE
Ionization: ESI
Collision energy: NCE_15_30_67
Column name: Acquity CSHC18
Retention time: 6.033 min
Base peak: 301.0355
Precursor m/z: 301.0355
Precursor type: [M-H]-
Precursor intensity: 245863300
m/z	relative intensity
54.1227	5
63.0225	5
65.0019	6
70.8299	6
83.0124	6
93.0328	6
107.0124	7
109.0286	7
111.0074	7
121.0281	7
122.032	7
125.0237	7
144.1506	8
149.0237	8
151.0028	8
152.007	9
161.0237	9
163.0182	9
164.0106	9
169.0134	9
178.9979	9
180.0016	10
187.0402	10
192.0066	11
193.0136	15
201.056	17
205.0504	18
211.0396	21
227.0337	22
229.0505	24
231.0297	24
239.0359	25
245.0466	25
255.0308	27
257.0453	27
273.0374	60
274.0433	94
283.0232	108
284.033	252
299.019	555
301.0349	999
