Mass spectrum: neopterin; LC-ESI-QTOF; MS2; CE: -10, -35, -60V;  [M-H]-
Name: neopterin
Class: NA
Formula: C9H11N5O4
Exact mass: 253.0811
SMILES: C1=C(N=C2C(=N1)NC(=NC2=O)N)C(C(CO)O)O
InChI: InChI=1S/C9H11N5O4/c10-9-13-7-5(8(18)14-9)12-3(1-11-7)6(17)4(16)2-15/h1,4,6,15-17H,2H2,(H3,10,11,13,14,18)
Instrument: TripleToF 5600; Sciex
Instrument type: LC-ESI-QTOF
Ms type: MS2
Ion mode: NEGATIVE
Ionization: ESI
Collision energy: -10, -35, -60V
Column name: Acquity CSHC18
Retention time: 0.770 min
Base peak: 252.0717
Precursor m/z: 252.0717
Precursor type: [M-H]-
Precursor intensity: 282401
m/z	relative intensity
66.0074	65
67.0286	12
68.0145	23
90.0068	2
92.0268	59
95.0232	44
105.0094	9
117.0212	4
119.0378	99
120.0193	34
121.0298	14
122.035	66
132.044	3
145.9699	3
147.0309	234
148.0116	26
150.0312	38
162.0424	123
163.0412	15
164.0575	9
174.0445	19
175.0441	11
190.0353	74
191.0446	51
192.041	991
192.0527	999
196.9725	7
249.9717	17
251.2768	11
252.074	733
