Mass spectrum: Acetovanillone; LC-ESI-QTOF; MS2; CE: 15.00;  [M+H]+
Name: Acetovanillone
Class: NA
Formula: C9H10O3
Exact mass: 166.0630
SMILES: CC(=O)C1=CC(=C(C=C1)O)OC
InChI: InChI=1S/C9H10O3/c1-6(10)7-3-4-8(11)9(5-7)12-2/h3-5,11H,1-2H3
Instrument: Bruker MicrOTOF-Q
Instrument type: LC-ESI-QTOF
Ms type: MS2
Ion mode: POSITIVE
Ionization: ESI
Collision energy: 15.00
Column name: Acquity CSHC18
Retention time: NA
Base peak: 167.0703
Precursor m/z: 167.0703
Precursor type: [M+H]+
m/z	relative intensity
110.0344	182
123.0412	28
124.0489	34
125.0581	400
151.0379	303
152.044	52
167.0703	999
168.0754	99
