Mass spectrum: PGA1; ESI-TOF; MS2; CE: 0.6458333;  [M+H]+
Name: PGA1
Class: NA
Formula: C20H32O4
Exact mass: 336.23006
SMILES: [H]OC(=O)C([H])([H])C([H])([H])C([H])([H])C([H])([H])C([H])([H])C([H])([H])C1([H])(C(=O)C([H])=C([H])C1([H])(C([H])=C([H])C([H])(O[H])C([H])([H])C([H])([H])C([H])([H])C([H])([H])C([H])([H])[H]))
InChI: InChI=1S/C20H32O4/c1-2-3-6-9-17(21)14-12-16-13-15-19(22)18(16)10-7-4-5-8-11-20(23)24/h12-18,21H,2-11H2,1H3,(H,23,24)
Instrument: waters xevo g2 TOF
Instrument type: ESI-TOF
Ms type: MS2
Ion mode: POSITIVE
Ionization: ESI
Collision energy: 0.6458333
Column name: Acquity CSHC18
Retention time: 4.765 min
Base peak: 337.23806
Precursor m/z: 337.23806
Precursor type: [M+H]+
m/z	relative intensity
67.0557	139
69.0708	128
79.0556	284
81.0707	332
83.0864	182
91.055	619
92.0587	48
93.0705	519
95.0862	374
97.1022	55
105.0708	709
106.0736	119
107.0677	285
109.1024	218
111.0285	85
115.0561	66
116.0621	31
117.0707	909
118.0748	112
120.0895	73
121.0662	308
122.0699	25
123.0816	110
128.063	122
129.0705	696
130.0755	128
131.0868	757
132.0901	166
133.0657	999
134.0695	125
135.0808	174
137.0969	39
141.0706	85
142.0766	71
143.0852	677
144.0913	126
145.102	673
146.1058	81
147.0991	977
148.0852	116
149.1324	75
153.0234	79
155.0865	146
157.1012	440
158.106	88
159.1169	364
160.1221	49
161.1332	679
162.1358	86
163.1128	85
167.0736	148
169.1026	138
171.1173	410
173.1331	445
174.1371	138
175.1486	287
176.1519	39
177.128	140
181.1018	197
182.1072	30
183.1173	131
185.1335	560
186.1383	97
187.1107	327
189.1282	183
190.1326	37
191.0905	127
192.1453	30
195.1117	155
197.135	75
199.1485	370
200.1561	32
201.1285	97
203.1442	784
204.1482	131
205.017	51
209.1329	205
213.0947	76
217.1605	159
218.1612	25
219.1387	36
220.9907	34
223.1489	75
227.1438	96
231.2121	33
239.1628	48
241.1951	115
245.1544	92
248.0705	83
249.0809	809
250.083	100
255.2117	292
256.2136	48
259.2062	69
260.0712	39
261.08	42
264.0452	95
265.1229	136
266.199	44
267.0558	26
273.2223	667
274.2247	141
275.097	91
283.2067	643
284.2098	142
289.1125	39
301.1827	827
302.1684	265
303.2231	54
315.1264	38
319.1484	189
320.2301	70
339.1632	44
