Mass spectrum: Cadaverine; LC-ESI-ITFT; MS2; CE: 10;  [M+H]+
Name: Cadaverine
Class: Organic nitrogen compounds; Organonitrogen compounds; Amines
Formula: C5H14N2
Exact mass: 102.11570
SMILES: NCCCCCN
InChI: InChI=1S/C5H14N2/c6-4-2-1-3-5-7/h1-7H2
Instrument: Thermo Scientific Q-Exactive Focus
Instrument type: LC-ESI-ITFT
Ms type: MS2
Ion mode: POSITIVE
Ionization: ESI
Collision energy: 10
Column name: Acquity CSHC18
Retention time: 0.350 min
Base peak: 103.12298
Precursor m/z: 103.12298
Precursor type: [M+H]+
m/z	relative intensity
60.0449	1
69.0703	68
72.0811	1
86.0968	999
103.1232	8
103.1312	1
