Mass spectrum: Noscapine; LC-ESI-QTOF; MS2; CE: 24.91;  [M+H2O+H]+
Name: Noscapine
Class: NA
Formula: C22H23NO7
Exact mass: 413.1475
SMILES: CN1CCC2=CC3=C(C(=C2C1C4C5=C(C(=C(C=C5)OC)OC)C(=O)O4)OC)OCO3
InChI: InChI=1S/C22H23NO7/c1-23-8-7-11-9-14-20(29-10-28-14)21(27-4)15(11)17(23)18-12-5-6-13(25-2)19(26-3)16(12)22(24)30-18/h5-6,9,17-18H,7-8,10H2,1-4H3
Instrument: Bruker MicrOTOF-Q
Instrument type: LC-ESI-QTOF
Ms type: MS2
Ion mode: POSITIVE
Ionization: ESI
Collision energy: 24.91
Column name: Acquity CSHC18
Retention time: NA
Base peak: 432.1653
Precursor m/z: 432.1653
Precursor type: [M+H2O+H]+
m/z	relative intensity
205.0772	15
206.0841	15
220.1018	16
221.1046	16
222.1068	25
350.0892	29
352.1179	29
353.1096	30
365.111	36
366.1076	40
381.1286	45
382.1317	53
383.1272	64
396.1519	128
397.1541	137
414.1639	151
415.1659	999
