Mass spectrum: maltotetraose; LC-ESI-QTOF; MS2; CE: -10, -35, -60V;  [M-H]-
Name: maltotetraose
Class: NA
Formula: C24H42O21
Exact mass: 666.2219
SMILES: C(C1C(C(C(C(O1)OC2C(OC(C(C2O)O)OC3C(OC(C(C3O)O)OC4C(OC(C(C4O)O)O)CO)CO)CO)O)O)O)O
InChI: InChI=1S/C24H42O21/c25-1-5-9(29)10(30)15(35)22(40-5)44-19-7(3-27)42-24(17(37)12(19)32)45-20-8(4-28)41-23(16(36)13(20)33)43-18-6(2-26)39-21(38)14(34)11(18)31/h5-38H,1-4H2
Instrument: TripleToF 5600; Sciex
Instrument type: LC-ESI-QTOF
Ms type: MS2
Ion mode: NEGATIVE
Ionization: ESI
Collision energy: -10, -35, -60V
Column name: Acquity CSHC18
Retention time: 0.693 min
Base peak: 665.2248
Precursor m/z: 665.2248
Precursor type: [M-H]-
Precursor intensity: 107909.3
m/z	relative intensity
71.0134	37
73.0295	71
83.0142	19
89.0211	70
89.0251	70
97.0302	50
101.025	137
102.032	6
113.0271	37
115.044	10
131.0346	14
143.0418	68
159.0292	6
161.0471	476
162.0482	34
179.0601	237
180.0588	21
221.0684	274
222.0707	29
223.071	4
263.0712	52
281.0881	96
323.1003	6
341.1108	319
342.1101	46
365.1265	6
383.1235	242
384.1244	44
425.1387	96
426.126	22
427.1348	6
443.1437	107
444.1486	21
445.1518	4
503.16	268
504.1674	84
505.1758	20
545.1744	177
546.1736	52
587.1825	99
588.2057	25
605.1942	66
606.1982	16
627.1668	16
663.1066	12
665.2166	999
