Mass spectrum: Fluprostenol Lactone Diol; ESI-TOF; MS2; CE: 0.6458333;  [M+H]+
Name: Fluprostenol Lactone Diol
Class: NA
Formula: C18H19F3O5
Exact mass: 372.11846
SMILES: OC(COc1cccc(c1)C(F)(F)F)/C=C/[C@H]1C(O)CC2OC(=O)CC12
InChI: InChI=1S/C18H19F3O5/c19-18(20,21)10-2-1-3-12(6-10)25-9-11(22)4-5-13-14-7-17(24)26-16(14)8-15(13)23/h1-6,11,13-16,22-23H,7-9H2/b5-4+/t11?,13-,14?,15?,16?/m1/s1
Instrument: waters xevo g2 TOF
Instrument type: ESI-TOF
Ms type: MS2
Ion mode: POSITIVE
Ionization: ESI
Collision energy: 0.6458333
Column name: Acquity CSHC18
Retention time: 3.034 min
Base peak: 373.12646
Precursor m/z: 373.12646
Precursor type: [M+H]+
m/z	relative intensity
77.0388	30
79.0547	141
91.0552	999
92.0592	51
93.0698	56
95.0495	44
103.0556	44
105.0711	885
106.0748	66
107.0509	64
115.0548	97
117.0709	142
119.0865	368
120.0919	29
121.0297	108
123.0812	23
127.0145	36
128.0635	137
129.0712	786
130.0764	133
131.087	147
133.0663	833
134.0703	66
137.0612	154
147.0811	352
148.0837	37
149.0612	27
151.076	62
153.0361	17
157.0651	33
159.0431	99
163.0397	18
165.0919	40
167.0713	63
173.0608	20
175.0383	341
176.0814	46
177.0536	23
179.0842	28
181.0483	35
187.038	95
193.0871	445
194.0899	43
199.0375	738
200.0393	40
203.0181	15
207.0809	176
208.0889	27
209.1132	28
211.1134	13
213.0532	79
221.0954	85
225.0991	63
231.0805	114
235.0793	107
237.073	47
239.0729	12
249.0896	128
250.0602	11
253.093	57
255.0827	58
257.0796	43
267.1022	126
268.1115	15
269.0953	34
271.0525	37
275.0832	23
277.0848	511
279.047	17
289.1049	39
291.098	123
295.0963	566
297.0935	60
307.0633	46
309.1114	33
313.1072	669
314.1094	111
315.1053	22
317.0993	330
318.1018	58
319.096	43
335.1088	93
337.1053	366
338.1085	53
351.0575	62
367.0251	19
369.062	90
371.0653	107
372.0686	11
373.1262	165
