Mass spectrum: C16-02:0 DG; ESI-TOF; MS2; CE: 0.6458333;  [M+H]+
Name: C16-02:0 DG
Class: NA
Formula: C21H42O4
Exact mass: 358.30831
SMILES: [H]OC([H])([H])C([H])(OC(=O)C([H])([H])[H])C([H])([H])OC([H])([H])C([H])([H])C([H])([H])C([H])([H])C([H])([H])C([H])([H])C([H])([H])C([H])([H])C([H])([H])C([H])([H])C([H])([H])C([H])([H])C([H])([H])C([H])([H])C([H])([H])C([H])([H])[H]
InChI: InChI=1S/C21H42O4/c1-3-4-5-6-7-8-9-10-11-12-13-14-15-16-17-24-19-21(18-22)25-20(2)23/h21-22H,3-19H2,1-2H3
Instrument: waters xevo g2 TOF
Instrument type: ESI-TOF
Ms type: MS2
Ion mode: POSITIVE
Ionization: ESI
Collision energy: 0.6458333
Column name: Acquity CSHC18
Retention time: 8.615 min
Base peak: 359.31631
Precursor m/z: 359.31631
Precursor type: [M+H]+
m/z	relative intensity
57.0711	21
71.0862	92
85.102	138
98.9761	253
112.9921	24
117.0552	28
131.0021	36
155.0022	82
170.9744	30
173.0126	23
178.1306	114
187.0806	5
190.9846	14
199.1359	42
199.6375	3
209.0835	8
279.2009	10
281.2156	24
337.2416	23
339.1981	28
341.2713	113
342.2749	17
355.2527	52
357.2466	28
357.7859	13
365.3245	18
370.3011	5
378.2899	759
378.7916	351
379.2932	103
379.7938	23
380.287	20
380.7887	8
381.298	999
382.3011	238
383.3031	35
385.2785	3
386.2761	6
387.2768	14
387.7766	6
388.777	2
397.2659	462
397.7646	16
398.2653	100
403.281	8
405.2533	15
413.2367	26
415.2375	39
417.2322	10
427.2873	7
433.2433	16
434.7544	9
441.3059	9
443.2685	248
444.2702	62
445.268	6
457.2841	143
458.2606	19
460.25	6
472.2483	59
473.2538	25
475.2562	11
497.189	13
529.2148	15
576.4175	5
583.8999	5
584.4027	7
584.904	4
653.5058	19
741.5952	6
755.5716	14
768.5399	3
770.5352	63
771.5402	39
772.5418	11
775.5373	3
801.5751	5
