Mass spectrum: Phenylacetylglutamine; LC-ESI-ITFT; MS2; CE: 30;  [M-H]-
Name: Phenylacetylglutamine
Class: Organic acids and derivatives; Carboxylic acids and derivatives; Amino acids, peptides, and analogues
Formula: C13H16N2O4
Exact mass: 264.11101
SMILES: NC(=O)CC[C@H](NC(=O)CC1=CC=CC=C1)C(O)=O
InChI: InChI=1S/C13H16N2O4/c14-11(16)7-6-10(13(18)19)15-12(17)8-9-4-2-1-3-5-9/h1-5,10H,6-8H2,(H2,14,16)(H,15,17)(H,18,19)/t10-/m0/s1
Instrument: Thermo Scientific Q-Exactive Focus
Instrument type: LC-ESI-ITFT
Ms type: MS2
Ion mode: NEGATIVE
Ionization: ESI
Collision energy: 30
Column name: Acquity CSHC18
Retention time: 0.925 min
Base peak: 263.10373
Precursor m/z: 263.10373
Precursor type: [M-H]-
m/z	relative intensity
74.0234	80
82.0286	50
84.0442	191
86.0235	45
101.0708	122
109.0395	308
125.0345	152
127.0501	999
128.0341	472
145.0607	939
