Mass spectrum: Nicotianoside Ia; LC-ESI-QTOF; MS2; CE: 15eV;  [M+NH4]+
Name: Nicotianoside Ia
Class: Diterpene
Formula: C41H66O19
Exact mass: 862.4198
SMILES: O=C(O)CC(=O)OC[C@H]1O[C@@H](OCC(/C)=C\CCC(\C)=C\CCC(\C)=C\CC[C@](C)(O[C@@H]2O[C@H](CO)[C@@H](O[C@@H]3O[C@@H](C)[C@H](O)[C@@H](O)[C@H]3O)[C@H](O)[C@H]2O)C=C)[C@H](O)[C@@H](O)[C@@H]1O
InChI: InChI=1S/C41H66O19/c1-7-41(6,60-40-36(53)33(50)37(25(18-42)57-40)59-39-35(52)31(48)29(46)24(5)56-39)16-10-15-22(3)12-8-11-21(2)13-9-14-23(4)19-55-38-34(51)32(49)30(47)26(58-38)20-54-28(45)17-27(43)44/h7,11,14-15,24-26,29-40,42,46-53H,1,8-10,12-13,16-20H2,2-6H3,(H,43,44)/b21-11+,22-15+,23-14-/t24-,25+,26+,29-,30+,31+,32-,33+,34+,35+,36+,37+,38+,39-,40-,41+/m0/s1
Instrument: Impact II qTOF
Instrument type: LC-ESI-QTOF
Ms type: MS2
Ion mode: POSITIVE
Ionization: ESI
Collision energy: 15eV
Column name: Direct injection MS/MS
Retention time: 0.9 min
Base peak: 880.4570
Precursor m/z: 880.4570
Precursor type: [M+NH4]+
m/z	relative intensity
249.0614	13
271.2426	130
272.2459	22
289.2516	17
309.1194	12
359.0959	13
395.1183	52
399.2894	9
417.2998	51
418.3038	12
435.3113	10
537.3045	20
557.1695	14
665.3531	9
683.3645	20
880.4576	999
