Mass spectrum: THYROXINE; LC-ESI-QFT; MS2; CE: 30eV;  [M-H]-
Name: THYROXINE
Class: NA
Formula: C15H11I4NO4
Exact mass: 776.68670
SMILES: N[C@@H](CC1=CC(I)=C(OC2=CC(I)=C(O)C(I)=C2)C(I)=C1)C(O)=O
InChI: InChI=1S/C15H11I4NO4/c16-8-4-7(5-9(17)13(8)21)24-14-10(18)1-6(2-11(14)19)3-12(20)15(22)23/h1-2,4-5,12,21H,3,20H2,(H,22,23)/t12-/m0/s1
Instrument: Q-Exactive Orbitrap, Thermo Scientfic; Ultimate 3000 HPLC, Thermo Scientfic
Instrument type: LC-ESI-QFT
Ms type: MS2
Ion mode: NEGATIVE
Ionization: ESI
Collision energy: 30eV
Column name: Acquity CSHC18
Retention time: 9.339 min
Base peak: 775.6794
Precursor m/z: 775.6794
Precursor type: [M-H]-
Precursor intensity: 195
m/z	relative intensity
58.466	5
71.4857	6
71.735	6
75.8824	5
90.9666	6
91.8481	5
97.7681	6
104.6992	6
104.9753	5
111.048	5
122.6084	6
126.9035	999
128.429	6
135.6532	7
167.5736	7
170.488	6
175.881	7
307.6487	6
329.088	6
342.2252	6
408.8409	6
483.1209	7
574.7495	27
588.7617	7
761.8686	9
