Mass spectrum: Jasmonic acid; LC-ESI-ITFT; MS2; CE: 60;  [M+H]+
Name: Jasmonic acid
Class: Lipids and lipid-like molecules; Fatty Acyls; Lineolic acids and derivatives
Formula: C12H18O3
Exact mass: 210.12559
SMILES: CC\C=C/C[C@@H]1[C@@H](CC(O)=O)CCC1=O
InChI: InChI=1S/C12H18O3/c1-2-3-4-5-10-9(8-12(14)15)6-7-11(10)13/h3-4,9-10H,2,5-8H2,1H3,(H,14,15)/b4-3-/t9-,10-/m1/s1
Instrument: Thermo Scientific Q-Exactive Focus
Instrument type: LC-ESI-ITFT
Ms type: MS2
Ion mode: POSITIVE
Ionization: ESI
Collision energy: 60
Column name: Acquity CSHC18
Retention time: 2.017 min
Base peak: 211.13287
Precursor m/z: 211.13287
Precursor type: [M+H]+
m/z	relative intensity
51.0236	252
53.0028	422
53.0392	772
55.0548	384
65.0391	993
67.0548	936
79.0547	999
81.0703	289
91.0546	946
95.0495	759
