Mass spectrum: neochlorogenic acid; LC-ESI-QFT; MS2; CE: NCE_15_30_54;  [M-H]-
Name: neochlorogenic acid
Class: NA
Formula: C16H18O9
Exact mass: 354.0951
SMILES: C1C(C(C(CC1(C(=O)O)O)OC(=O)C=CC2=CC(=C(C=C2)O)O)O)O
InChI: InChI=1S/C16H18O9/c17-9-3-1-8(5-10(9)18)2-4-13(20)25-12-7-16(24,15(22)23)6-11(19)14(12)21/h1-5,11-12,14,17-19,21,24H,6-7H2,(H,22,23)
Instrument: Thermo_Qexactive_Plus
Instrument type: LC-ESI-QFT
Ms type: MS2
Ion mode: NEGATIVE
Ionization: ESI
Collision energy: NCE_15_30_54
Column name: Acquity CSHC18
Retention time: 2.441 min
Base peak: 353.0883
Precursor m/z: 353.0883
Precursor type: [M-H]-
Precursor intensity: 472161700
m/z	relative intensity
70.7399	16
72.1671	18
90.8361	18
104.9254	19
111.0434	19
116.8548	20
135.0453	20
136.0473	21
145.666	21
155.0348	31
158.3555	34
161.0236	39
173.0451	56
179.0364	56
180.0381	61
183.6229	71
191.0561	335
192.0587	380
218.0886	790
353.0874	999
