Mass spectrum: CYCLIC AMP; LC-ESI-QFT; MS2; CE: 30eV;  [M+H]+
Name: CYCLIC AMP
Class: NA
Formula: C10H12N5O6P
Exact mass: 329.05252
SMILES: NC1=NC=NC2=C1N=CN2[C@@H]1O[C@@H]2COP(O)(=O)O[C@H]2[C@H]1O
InChI: InChI=1S/C10H12N5O6P/c11-8-5-9(13-2-12-8)15(3-14-5)10-6(16)7-4(20-10)1-19-22(17,18)21-7/h2-4,6-7,10,16H,1H2,(H,17,18)(H2,11,12,13)/t4-,6-,7-,10-/m1/s1
Instrument: Q-Exactive Orbitrap, Thermo Scientfic; Ultimate 3000 HPLC, Thermo Scientfic
Instrument type: LC-ESI-QFT
Ms type: MS2
Ion mode: POSITIVE
Ionization: ESI
Collision energy: 30eV
Column name: Acquity CSHC18
Retention time: 1.218 min
Base peak: 330.0598
Precursor m/z: 330.0598
Precursor type: [M+H]+
Precursor intensity: 194
m/z	relative intensity
52.6738	1
65.5176	1
66.0602	1
67.0299	1
69.0342	16
75.4935	1
76.324	1
78.399	1
79.2261	1
79.9661	1
83.7731	1
85.6047	1
86.0292	1
89.758	1
97.029	181
98.0324	2
98.9847	24
105.0785	1
106.912	1
114.5394	1
137.0592	22
137.0654	72
148.0623	2
149.0002	1
152.6819	1
154.4607	1
162.0775	3
176.0571	18
176.9951	66
178.0726	6
186.0779	2
190.0728	19
195.0057	6
204.0885	44
205.0922	1
214.0727	29
232.0833	95
233.0865	2
250.0939	32
284.0537	2
312.0498	252
313.0538	15
325.9665	1
330.0605	999
331.064	77
