Mass spectrum: phenylpyruvic acid; LC-ESI-QTOF; MS2; CE: -10, -35, -60V;  [M-H]-
Name: phenylpyruvic acid
Class: NA
Formula: C9H8O3
Exact mass: 164.0473
SMILES: C1=CC=C(C=C1)CC(=O)C(=O)O
InChI: InChI=1S/C9H8O3/c10-8(9(11)12)6-7-4-2-1-3-5-7/h1-5H,6H2,(H,11,12)
Instrument: TripleToF 5600; Sciex
Instrument type: LC-ESI-QTOF
Ms type: MS2
Ion mode: NEGATIVE
Ionization: ESI
Collision energy: -10, -35, -60V
Column name: Acquity CSHC18
Retention time: 12.383 min
Base peak: 163.0386
Precursor m/z: 163.0386
Precursor type: [M-H]-
Precursor intensity: 124794.2
m/z	relative intensity
77.0425	7
91.0537	758
92.0586	82
149.0283	13
162.5281	12
163.0396	999
