Mass spectrum: Syringin; LC-ESI-QTOF; MS2; CE: 23.78 / 23.79;  [M+HCOOH-H]-
Name: Syringin
Class: NA
Formula: C17H24O9
Exact mass: 372.1420
SMILES: COC1=CC(=CC(=C1OC2C(C(C(C(O2)CO)O)O)O)OC)C=CCO
InChI: InChI=1S/C17H24O9/c1-23-10-6-9(4-3-5-18)7-11(24-2)16(10)26-17-15(22)14(21)13(20)12(8-19)25-17/h3-4,6-7,12-15,17-22H,5,8H2,1-2H3
Instrument: Bruker MicrOTOF-Q
Instrument type: LC-ESI-QTOF
Ms type: MS2
Ion mode: NEGATIVE
Ionization: ESI
Collision energy: 23.78 / 23.79
Column name: Acquity CSHC18
Retention time: NA
Base peak: 417.1402
Precursor m/z: 417.1402
Precursor type: [M+HCOOH-H]-
m/z	relative intensity
161.0252	6
161.0273	30
176.0479	61
179.037	49
180.0419	9
191.0662	43
193.0454	7
193.9861	8
194.0576	596
195.0619	83
209.0816	999
210.0831	102
211.0917	7
