Mass spectrum: Serine; LC-ESI-QTOF; MS2; CE: 10;  [M+H]+
Name: Serine
Class: NA
Formula: C3H7NO3
Exact mass: 105.04259
SMILES: C(C(C(=O)O)N)O
InChI: InChI=1S/C3H7NO3/c4-2(1-5)3(6)7/h2,5H,1,4H2,(H,6,7)
Instrument: impact II
Instrument type: LC-ESI-QTOF
Ms type: MS2
Ion mode: POSITIVE
Ionization: ESI
Collision energy: 10
Column name: Acquity CSHC18
Retention time: 1.789 min
Base peak: 106.04990
Precursor m/z: 106.04990
Precursor type: [M+H]+
m/z	relative intensity
60.0453	999
88.0396	160
106.0501	296
