Mass spectrum: Vanillic acid; LC-ESI-QTOF; MS2; CE: 15.00;  [M-H]-
Name: Vanillic acid
Class: NA
Formula: C8H8O4
Exact mass: 168.0423
SMILES: COC1=C(C=CC(=C1)C(=O)O)O
InChI: InChI=1S/C8H8O4/c1-12-7-4-5(8(10)11)2-3-6(7)9/h2-4,9H,1H3,(H,10,11)
Instrument: Bruker MicrOTOF-Q
Instrument type: LC-ESI-QTOF
Ms type: MS2
Ion mode: NEGATIVE
Ionization: ESI
Collision energy: 15.00
Column name: Acquity CSHC18
Retention time: NA
Base peak: 167.0350
Precursor m/z: 167.0350
Precursor type: [M-H]-
m/z	relative intensity
45.2382	27
46.796	29
50.3724	28
53.1692	34
54.0549	33
55.9143	32
58.0662	29
59.6866	25
60.9176	31
64.2944	30
67.8471	28
69.8256	28
74.226	29
76.3931	27
78.0128	29
81.0208	27
84.5763	26
87.2276	29
93.2764	30
99.6925	28
102.0641	30
105.086	26
106.8023	22
108.7261	800
110.8899	99
111.443	35
112.0305	17
113.073	30
113.9538	30
115.1445	29
116.6611	20
119.278	35
120.3047	29
121.3031	23
122.5165	107
123.8934	72
124.8335	27
125.5561	30
126.788	26
127.375	25
128.4458	37
128.9061	30
130.0282	33
130.5209	31
131.9196	24
133.4614	24
134.5935	25
135.9862	28
137.0158	25
138.3353	47
139.0022	23
140.1019	27
141.4764	21
143.7953	28
144.4317	23
144.8369	18
147.9671	19
149.3649	37
149.8481	21
152.5888	999
155.189	19
155.741	18
157.0054	16
157.6797	17
167.0386	185
168.0332	16
174.0784	16
174.7357	17
175.2551	19
208.8267	28
218.538	18
225.2164	24
234.7022	38
243.4849	30
250.1899	28
261.0147	17
276.7291	34
282.6215	28
288.0022	30
291.3394	18
314.118	31
324.1952	23
326.7146	17
327.1789	28
370.1001	17
445.1885	22
469.0944	31
485.5387	16
522.8218	19
544.6701	28
562.0603	30
579.0866	26
584.816	28
618.3356	18
642.5332	26
661.0776	31
662.022	16
672.8521	17
676.6411	20
701.4209	17
707.5018	21
739.5751	16
821.289	30
850.2592	16
988.0914	23
