Mass spectrum: N-ACETYLPROLINE; LC-ESI-QTOF; MS2; CE: 40;  [M-H]-
Name: N-ACETYLPROLINE
Class: NA
Formula: C7H11NO3
Exact mass: 157.07389
SMILES: [H][C@]1(CCCN1C(C)=O)C(O)=O
InChI: InChI=1S/C7H11NO3/c1-5(9)8-4-2-3-6(8)7(10)11/h6H,2-4H2,1H3,(H,10,11)/t6-/m0/s1
Instrument: Agilent 6530Â Q-TOF LC/MS
Instrument type: LC-ESI-QTOF
Ms type: MS2
Ion mode: NEGATIVE
Ionization: ESI
Collision energy: 40
Column name: NA
Retention time: 0.200 min
Base peak: 156.06348
Precursor m/z: 156.06348
Precursor type: [M-H]-
Precursor intensity: 135
m/z	relative intensity
40.0213	184
41.0141	203
42.0024	243
57.0344	267
64.0042	274
82.0313	428
96.0458	762
114.0676	999
