Mass spectrum: Inosine; LC-ESI-ITFT; MS2; CE: 100;  [M+H]+
Name: Inosine
Class: Nucleosides, nucleotides, and analogues; Purine nucleosides
Formula: C10H12N4O5
Exact mass: 268.08077
SMILES: OC[C@H]1O[C@H]([C@H](O)[C@@H]1O)N1C=NC2=C1NC=NC2=O
InChI: InChI=1S/C10H12N4O5/c15-1-4-6(16)7(17)10(19-4)14-3-13-5-8(14)11-2-12-9(5)18/h2-4,6-7,10,15-17H,1H2,(H,11,12,18)/t4-,6-,7-,10-/m1/s1
Instrument: Thermo Scientific Q-Exactive Focus
Instrument type: LC-ESI-ITFT
Ms type: MS2
Ion mode: POSITIVE
Ionization: ESI
Collision energy: 100
Column name: Acquity CSHC18
Retention time: 2.570 min
Base peak: 269.08804
Precursor m/z: 269.08804
Precursor type: [M+H]+
m/z	relative intensity
53.0028	23
53.998	124
55.0297	999
65.014	213
67.0296	202
71.0132	71
77.0139	23
82.0404	65
92.0247	65
119.0354	24
