Mass spectrum: Sulprostone; ESI-TOF; MS2; CE: 6.0000000;  [M+H]+
Name: Sulprostone
Class: NA
Formula: C23H31NO7S
Exact mass: 465.18212
SMILES: O=C1[C@H](C/C=C\CCCC(NS(=O)(C)=O)=O)[C@@H](/C=C/[C@@H](O)COC2=CC=CC=C2)[C@H](O)C1
InChI: InChI=1S/C23H31NO7S/c1-32(29,30)24-23(28)12-8-3-2-7-11-19-20(22(27)15-21(19)26)14-13-17(25)16-31-18-9-5-4-6-10-18/h2,4-7,9-10,13-14,17,19-20,22,25,27H,3,8,11-12,15-16H2,1H3,(H,24,28)/b7-2-,14-13+/t17-,19-,20-,22-/m1/s1
Instrument: waters xevo g2 TOF
Instrument type: ESI-TOF
Ms type: MS2
Ion mode: POSITIVE
Ionization: ESI
Collision energy: 6.0000000
Column name: Acquity CSHC18
Retention time: 2.827 min
Base peak: 466.19012
Precursor m/z: 466.19012
Precursor type: [M+H]+
m/z	relative intensity
131.0502	3
145.0678	5
147.0818	9
169.1031	10
171.1179	12
175.0761	8
185.0956	2
187.1129	25
189.1289	33
196.0625	12
197.0972	12
199.1122	6
204.0687	5
213.1282	29
215.1074	126
217.1234	11
223.112	25
231.1395	30
233.1163	3
241.1226	97
251.1057	5
252.5723	79
259.1335	999
260.1366	147
277.1447	14
282.1113	8
284.1325	71
310.117	21
326.1456	10
335.1655	76
336.1259	29
353.1776	62
354.1369	522
355.1359	87
368.1544	17
412.0511	23
420.1352	7
430.1692	73
431.1741	15
448.1794	39
449.1836	11
450.1803	3
467.6598	10
