Mass spectrum: Hydroxykynurenine; ESI-TOF; MS2; CE: 0.6458333;  [M+H]+
Name: Hydroxykynurenine
Class: NA
Formula: C10H12N2O4
Exact mass: 224.07971
SMILES: NC(CC(=O)C1=C(N)C(O)=CC=C1)C(O)=O
InChI: InChI=1S/C10H12N2O4/c11-6(10(15)16)4-8(14)5-2-1-3-7(13)9(5)12/h1-3,6,13H,4,11-12H2,(H,15,16)
Instrument: waters xevo g2 TOF
Instrument type: ESI-TOF
Ms type: MS2
Ion mode: POSITIVE
Ionization: ESI
Collision energy: 0.6458333
Column name: Acquity CSHC18
Retention time: 0.585 min
Base peak: 225.08771
Precursor m/z: 225.08771
Precursor type: [M+H]+
m/z	relative intensity
65.0401	11
77.0395	28
79.0554	24
81.0347	10
89.0395	30
90.9794	4
92.0507	31
93.034	39
99.0086	21
99.9702	31
102.092	2
104.0505	301
105.0553	17
106.066	131
107.0499	13
108.0452	59
109.0523	6
110.0608	99
115.9628	1
116.9644	3
120.0455	183
121.0487	13
122.062	13
124.0644	9
125.0726	13
129.8812	2
131.9984	139
133.0523	138
134.0609	297
135.0569	170
136.0401	51
138.0566	11
144.0455	42
145.0192	8
147.0556	11
148.0405	43
150.0561	10
152.0714	17
160.0402	308
161.0468	98
162.0557	999
163.0585	75
164.0612	6
166.0508	19
172.04	9
175.0512	74
176.0352	12
177.0664	82
178.0512	57
179.0814	2
181.0617	18
188.0351	15
188.9873	1
190.0501	45
191.0238	5
204.9848	3
206.0455	27
208.061	10
223.0721	60
224.0743	5
