Mass spectrum: GUANIDINOSUCCINATE; LC-ESI-QTOF; MS2; CE: 20;  [M+H]+
Name: GUANIDINOSUCCINATE
Class: NA
Formula: C5H9N3O4
Exact mass: 175.05931
SMILES: NC(=N)N[C@@H](CC(O)=O)C(O)=O
InChI: InChI=1S/C5H9N3O4/c6-5(7)8-2(4(11)12)1-3(9)10/h2H,1H2,(H,9,10)(H,11,12)(H4,6,7,8)/t2-/m0/s1
Instrument: Agilent 6530Â Q-TOF LC/MS
Instrument type: LC-ESI-QTOF
Ms type: MS2
Ion mode: POSITIVE
Ionization: ESI
Collision energy: 20
Column name: NA
Retention time: 0.200 min
Base peak: 176.06904
Precursor m/z: 176.06904
Precursor type: [M+H]+
Precursor intensity: 190.5
m/z	relative intensity
43.0333	135
44.0506	150
46.0352	191
60.0609	196
70.0474	225
74.0456	227
86.0639	228
88.0563	237
98.0367	246
99.0123	359
112.0558	717
116.0462	750
134.0399	923
176.0693	999
