Mass spectrum: 3-Nitro-L-tyrosine; LC-ESI-QTOF; MS2; CE: -10, -35, -60V;  [M-H]-
Name: 3-Nitro-L-tyrosine
Class: NA
Formula: C9H10N2O5
Exact mass: 226.0590
SMILES: C1=CC(=C(C=C1CC(C(=O)O)N)[N+](=O)[O-])O
InChI: InChI=1S/C9H10N2O5/c10-6(9(13)14)3-5-1-2-8(12)7(4-5)11(15)16/h1-2,4,6,12H,3,10H2,(H,13,14)
Instrument: TripleToF 5600; Sciex
Instrument type: LC-ESI-QTOF
Ms type: MS2
Ion mode: NEGATIVE
Ionization: ESI
Collision energy: -10, -35, -60V
Column name: Acquity CSHC18
Retention time: 2.923 min
Base peak: 225.0535
Precursor m/z: 225.0535
Precursor type: [M-H]-
Precursor intensity: 91967.81
m/z	relative intensity
118.0292	18
118.0446	18
133.048	14
134.0398	18
135.0599	12
136.0394	70
138.0174	8
145.0364	9
148.0405	80
151.0215	46
163.0517	492
164.0374	113
165.0405	14
180.049	21
180.0546	20
181.0619	206
182.0624	19
208.0194	14
223.0356	10
225.0514	999
