Mass spectrum: CYTIDINE 2',3'-CYCLIC PHOSPHATE; LC-ESI-QTOF; MS2; CE: 10;  [M+H]+
Name: CYTIDINE 2',3'-CYCLIC PHOSPHATE
Class: NA
Formula: C9H12N3O7P
Exact mass: 305.0413
SMILES: NC1=NC(=O)N(C=C1)C1O[C@H](CO)[C@H]2OP(O)(=O)O[C@@H]12
InChI: InChI=1S/C9H12N3O7P/c10-5-1-2-12(9(14)11-5)8-7-6(4(3-13)17-8)18-20(15,16)19-7/h1-2,4,6-8,13H,3H2,(H,15,16)(H2,10,11,14)/t4-,6-,7-,8?/m1/s1
Instrument: Agilent 6530Â Q-TOF LC/MS
Instrument type: LC-ESI-QTOF
Ms type: MS2
Ion mode: POSITIVE
Ionization: ESI
Collision energy: 10
Column name: NA
Retention time: 0.200 min
Base peak: 306.04799
Precursor m/z: 306.04799
Precursor type: [M+H]+
Precursor intensity: 63.5
m/z	relative intensity
69.0684	16
112.0499	19
112.4191	20
113.0501	35
178.0574	55
219.1749	120
306.0465	999
