Mass spectrum: trans-Sinapic acid; LC-ESI-QTOF; MS2; CE: 15;  [M-H]-
Name: trans-Sinapic acid
Class: NA
Formula: C11H12O5
Exact mass: 224.0685
SMILES: COC1=CC(=CC(=C1O)OC)C=CC(=O)O
InChI: InChI=1S/C11H12O5/c1-15-8-5-7(3-4-10(12)13)6-9(16-2)11(8)14/h3-6,14H,1-2H3,(H,12,13)
Instrument: Bruker MicrOTOF-Q
Instrument type: LC-ESI-QTOF
Ms type: MS2
Ion mode: NEGATIVE
Ionization: ESI
Collision energy: 15
Column name: Acquity CSHC18
Retention time: NA
Base peak: 223.0612
Precursor m/z: 223.0612
Precursor type: [M-H]-
m/z	relative intensity
121.03	214
135.045	61
147.046	16
149.0247	771
150.0261	42
152.0115	50
163.04	130
164.0469	213
165.0238	61
193.014	999
194.0184	90
207.0308	18
208.0369	256
209.0418	24
