Mass spectrum: 3'-O-sinapoyl-6-O-feruloylsucrose; LC-ESI-QTOF; MS2; CE: 20-40eV;  [M+NH4]+
Name: 3'-O-sinapoyl-6-O-feruloylsucrose
Class: Hydroxycinnamic acids and derivatives
Formula: C33H40O18
Exact mass: 724.2215
SMILES: COC=1C=C(C=CC1O)C=CC(=O)OC2C(C(CO)OC2(COC(C=CC3=CC(=C(C(=C3)OC)O)OC)=O)OC4C(C(C(C(CO)O4)O)O)O)O
InChI: InChI=1S/C33H40O18/c1-44-19-10-16(4-7-18(19)36)5-9-25(38)49-31-28(41)23(14-35)50-33(31,51-32-30(43)29(42)27(40)22(13-34)48-32)15-47-24(37)8-6-17-11-20(45-2)26(39)21(12-17)46-3/h4-12,22-23,27-32,34-36,39-43H,13-15H2,1-3H3
Instrument: Impact II, Bruker; Dionex 3000, Thermo Scientific
Instrument type: LC-ESI-QTOF
Ms type: MS2
Ion mode: POSITIVE
Ionization: ESI
Collision energy: 20-40eV
Column name: Acquity CSHC18
Retention time: 7.971 min
Base peak: 742.2562
Precursor m/z: 742.2562
Precursor type: [M+NH4]+
Precursor intensity: 4280.38
m/z	relative intensity
119.0461	15
127.0393	16
147.0455	16
166.0865	16
175.0383	17
177.0533	20
207.0653	20
208.0683	21
225.0775	24
333.0966	24
351.1079	25
369.1188	27
370.1219	28
495.1491	30
506.1936	39
531.1712	44
532.1737	91
550.2214	143
553.1526	238
699.2668	999
