Mass spectrum: 4-Hydroxyindole; LC-ESI-QTOF; MS2; CE: 15.00;  [M+H]+
Name: 4-Hydroxyindole
Class: NA
Formula: C8H7NO
Exact mass: 133.0528
SMILES: C1=CC2=C(C=CN2)C(=C1)O
InChI: InChI=1S/C8H7NO/c10-8-3-1-2-7-6(8)4-5-9-7/h1-5,9-10H
Instrument: Bruker MicrOTOF-Q
Instrument type: LC-ESI-QTOF
Ms type: MS2
Ion mode: POSITIVE
Ionization: ESI
Collision energy: 15.00
Column name: Acquity CSHC18
Retention time: NA
Base peak: 134.0600
Precursor m/z: 134.0600
Precursor type: [M+H]+
m/z	relative intensity
77.0463	1
79.4403	1
85.1887	1
89.0362	12
89.1814	1
89.3775	1
90.0379	1
92.0313	1
104.0479	14
105.0544	19
106.063	401
106.2316	1
106.2967	1
106.5033	1
106.5446	1
106.5763	1
107.0472	391
107.1514	1
107.5383	1
108.0531	37
109.0778	2
109.1207	1
109.5417	1
115.5145	1
116.049	444
116.1772	1
116.8636	1
117.0557	122
117.3301	1
117.9392	1
118.0579	7
120.039	2
121.0479	1
131.0364	1
132.0442	2
132.1	1
133.0515	112
133.3939	1
133.5299	1
133.9123	1
133.9609	2
134.0594	999
134.2183	2
134.2806	2
134.3611	2
134.5649	1
134.6436	1
135.0633	73
136.0712	5
384.9085	1
398.7121	1
