Mass spectrum: N-Acetyl-D-glucosamine; LC-ESI-QTOF; MS2; CE: 30;  [M-H]-
Name: N-Acetyl-D-glucosamine
Class: NA
Formula: C8H15NO6
Exact mass: 221.08994
SMILES: CC(=O)N[C@@H]1[C@@H](O)[C@H](O)[C@@H](CO)OC1O
InChI: InChI=1S/C8H15NO6/c1-3(11)9-5-7(13)6(12)4(2-10)15-8(5)14/h4-8,10,12-14H,2H2,1H3,(H,9,11)/t4-,5-,6-,7-,8?/m1/s1
Instrument: impact II
Instrument type: LC-ESI-QTOF
Ms type: MS2
Ion mode: NEGATIVE
Ionization: ESI
Collision energy: 30
Column name: Acquity CSHC18
Retention time: 1.807 min
Base peak: 220.08280
Precursor m/z: 220.08280
Precursor type: [M-H]-
m/z	relative intensity
59.0138	999
100.0404	277
119.0354	114
