Mass spectrum: DEOXYCARNITINE; LC-ESI-QTOF; MS2; CE: 20;  [M+H]+
Name: DEOXYCARNITINE
Class: NA
Formula: C7H15NO2
Exact mass: 145.1103
SMILES: C[N+](C)(CCCC([O-])=O)C
InChI: InChI=1S/C7H15NO2/c1-8(2,3)6-4-5-7(9)10/h4-6H2,1-3H3
Instrument: Agilent 6530Â Q-TOF LC/MS
Instrument type: LC-ESI-QTOF
Ms type: MS2
Ion mode: POSITIVE
Ionization: ESI
Collision energy: 20
Column name: NA
Retention time: 0.200 min
Base peak: 146.12102
Precursor m/z: 146.12102
Precursor type: [M+H]+
Precursor intensity: 40.5
m/z	relative intensity
41.0393	44
43.0187	66
44.0502	99
45.0347	120
58.0656	555
60.0814	868
87.0439	871
146.1166	999
