Mass spectrum: N-oleoylglycine; ESI-TOF; MS2; CE: 0.6458333;  [M+H]+
Name: N-oleoylglycine
Class: NA
Formula: C20H37NO3
Exact mass: 339.27734
SMILES: CCCCCCCCC=CCCCCCCCC(=O)NCC(=O)O
InChI: InChI=1S/C20H37NO3/c1-2-3-4-5-6-7-8-9-10-11-12-13-14-15-16-17-19(22)21-18-20(23)24/h9-10H,2-8,11-18H2,1H3,(H,21,22)(H,23,24)
Instrument: waters xevo g2 TOF
Instrument type: ESI-TOF
Ms type: MS2
Ion mode: POSITIVE
Ionization: ESI
Collision energy: 0.6458333
Column name: Acquity CSHC18
Retention time: 8.201 min
Base peak: 340.28534
Precursor m/z: 340.28534
Precursor type: [M+H]+
m/z	relative intensity
67.0552	83
69.0714	151
76.0403	999
79.0553	93
81.071	317
83.0865	273
93.0709	204
95.0861	416
97.1017	284
107.0868	203
109.1022	272
111.1177	105
121.1022	524
123.1172	101
135.1171	448
136.1219	42
149.134	206
151.1489	47
163.1488	71
184.0279	55
198.043	50
247.2425	280
265.2534	283
266.256	60
294.2799	82
318.2627	51
322.2218	30
332.2267	325
334.242	207
335.245	46
336.1843	16
340.2854	843
341.2887	195
