Mass spectrum: MALTOSE; LC-ESI-QFT; MS2; CE: 30eV;  [M-H]-
Name: MALTOSE
Class: NA
Formula: C12H22O11
Exact mass: 342.11621
SMILES: OC[C@H]1O[C@H](O[C@H]2[C@H](O)[C@H](O)[C@@H](O)O[C@@H]2CO)[C@H](O)[C@@H](O)[C@@H]1O
InChI: InChI=1S/C12H22O11/c13-1-3-5(15)6(16)9(19)12(22-3)23-10-4(2-14)21-11(20)8(18)7(10)17/h3-20H,1-2H2/t3-,4-,5-,6+,7-,8+,9-,10-,11+,12-/m1/s1
Instrument: Q-Exactive Orbitrap, Thermo Scientfic; Ultimate 3000 HPLC, Thermo Scientfic
Instrument type: LC-ESI-QFT
Ms type: MS2
Ion mode: NEGATIVE
Ionization: ESI
Collision energy: 30eV
Column name: Acquity CSHC18
Retention time: 0.561 min
Base peak: 341.1089
Precursor m/z: 341.1089
Precursor type: [M-H]-
Precursor intensity: 189
m/z	relative intensity
52.8571	97
52.8584	109
57.7805	106
62.6472	111
68.9919	100
71.0124	201
71.937	107
73.1127	103
89.0228	115
89.7354	115
97.028	501
100.9322	147
101.0231	483
102.9474	245
106.4249	129
112.9206	108
113.023	136
118.7027	129
145.8891	129
146.9374	999
165.4553	132
186.7011	133
334.0731	137
338.8733	135
