Mass spectrum: 3-Methylhistamine; ESI-TOF; MS2; CE: 6.0000000;  [M+H]+
Name: 3-Methylhistamine
Class: NA
Formula: C6H11N3
Exact mass: 125.09530
SMILES: CN1C=NC=C1CCN
InChI: InChI=1S/C6H11N3/c1-9-5-8-4-6(9)2-3-7/h4-5H,2-3,7H2,1H3
Instrument: waters xevo g2 TOF
Instrument type: ESI-TOF
Ms type: MS2
Ion mode: POSITIVE
Ionization: ESI
Collision energy: 6.0000000
Column name: Acquity CSHC18
Retention time: 0.449 min
Base peak: 126.10330
Precursor m/z: 126.10330
Precursor type: [M+H]+
m/z	relative intensity
91.9565	1
96.0692	16
97.019	14
102.1288	27
105.9625	3
109.0768	938
110.0809	77
111.9692	3
113.9646	217
114.9711	31
118.089	1
123.0302	24
126.1996	264
127.1062	999
128.034	18
137.9879	128
140.042	362
141.1171	35
148.0197	2
151.9368	12
153.95	4
160.9851	14
170.9951	8
177.0349	2
182.0347	3
186.0442	3
195.9955	1
210.0543	6
213.9598	2
226.0281	21
228.0092	2
235.9446	1
287.9819	1
309.1284	4
313.1193	28
315.1187	9
351.1232	193
352.1236	36
353.1226	188
354.1251	32
355.1183	72
356.053	8
357.1187	9
359.1184	121
360.1202	21
361.1126	75
362.1172	21
363.1124	43
364.1156	6
368.1217	5
468.0491	5
470.053	1
474.1834	2
476.214	1
478.2156	18
480.2136	8
495.2051	2
497.0527	14
507.0506	1
