Mass spectrum: Phosphorylcholine; ESI-TOF; MS2; CE: 0.6458333;  [M+H]+
Name: Phosphorylcholine
Class: NA
Formula: [C5H15NO4P]+
Exact mass: 184.07332
SMILES: C[N+](C)(C)CCOP(O)(O)=O
InChI: InChI=1S/C5H14NO4P/c1-6(2,3)4-5-10-11(7,8)9/h4-5H2,1-3H3,(H-,7,8,9)/p+1
Instrument: waters xevo g2 TOF
Instrument type: ESI-TOF
Ms type: MS2
Ion mode: POSITIVE
Ionization: ESI
Collision energy: 0.6458333
Column name: Acquity CSHC18
Retention time: 0.537 min
Base peak: 185.08187
Precursor m/z: 185.08187
Precursor type: [M+H]+
m/z	relative intensity
84.9601	1
86.097	809
98.9842	183
104.1071	119
113.9641	1
125.0001	999
129.5251	37
139.9637	1
140.9959	1
141.0338	1
141.9589	1
143.9975	1
152.5412	1
162.1121	1
166.0632	40
167.0131	1
171.9917	1
184.0738	394
185.077	1
206.0553	1
214.9168	50
230.89	46
236.9394	1
236.9396	1
255.9432	1
271.9183	1
282.9902	44
301.0006	1
315.0149	1
328.9949	1
367.1402	7
