Mass spectrum: O-SUCCINYL-HOMOSERINE; LC-ESI-QFT; MS2; CE: 30eV;  [M-H]-
Name: O-SUCCINYL-HOMOSERINE
Class: NA
Formula: C8H13NO6
Exact mass: 219.07429
SMILES: C(COC(=O)CCC(=O)O)C(C(=O)O)N
InChI: InChI=1S/C8H13NO6/c9-5(8(13)14)3-4-15-7(12)2-1-6(10)11/h5H,1-4,9H2,(H,10,11)(H,13,14)
Instrument: Q-Exactive Orbitrap, Thermo Scientfic; Ultimate 3000 HPLC, Thermo Scientfic
Instrument type: LC-ESI-QFT
Ms type: MS2
Ion mode: NEGATIVE
Ionization: ESI
Collision energy: 30eV
Column name: Acquity CSHC18
Retention time: 0.704 min
Base peak: 218.0670
Precursor m/z: 218.0670
Precursor type: [M-H]-
Precursor intensity: 166
m/z	relative intensity
53.3686	15
54.2004	16
57.178	12
57.8214	15
58.7107	14
59.7116	15
62.7551	13
64.9987	14
73.0279	254
76.2491	16
78.2272	15
78.3673	20
78.6907	14
79.5787	15
83.0236	16
88.2211	14
89.6366	15
98.0231	42
99.007	26
100.0387	183
104.9264	27
108.8576	16
110.6024	15
117.0176	969
117.0217	36
118.0209	18
118.0493	999
119.0525	20
122.5663	15
125.4339	17
127.8686	684
127.8758	17
130.8874	37
130.9423	29
146.8825	26
146.937	218
152.7922	15
156.0652	81
164.7911	15
173.9846	112
174.8624	31
200.0555	86
223.2574	18
