Mass spectrum: D-ORNITHINE; LC-ESI-QTOF; MS2; CE: 20;  [M+H]+
Name: D-ORNITHINE
Class: NA
Formula: C5H12N2O2
Exact mass: 132.0899
SMILES: NCCC[C@@H](N)C(O)=O
InChI: InChI=1S/C5H12N2O2/c6-3-1-2-4(7)5(8)9/h4H,1-3,6-7H2,(H,8,9)/t4-/m1/s1
Instrument: Agilent 6530Â Q-TOF LC/MS
Instrument type: LC-ESI-QTOF
Ms type: MS2
Ion mode: POSITIVE
Ionization: ESI
Collision energy: 20
Column name: NA
Retention time: 0.200 min
Base peak: 133.09719
Precursor m/z: 133.09719
Precursor type: [M+H]+
Precursor intensity: 139.5
m/z	relative intensity
43.0548	12
70.0656	33
116.0681	999
