Mass spectrum: beta-d-glucosyl 6-hydroxyindole-3-carboxylate; LC-ESI-QTOF; MS2; CE: 35.00;  [M+Na]+
Name: beta-d-glucosyl 6-hydroxyindole-3-carboxylate
Class: NA
Formula: C15H17NO8
Exact mass: 339.0954
SMILES: C1=CC2=C(C=C1O)NC=C2C(=O)OC3C(C(C(C(O3)CO)O)O)O
InChI: InChI=1S/C15H17NO8/c17-5-10-11(19)12(20)13(21)15(23-10)24-14(22)8-4-16-9-3-6(18)1-2-7(8)9/h1-4,10-13,15-21H,5H2
Instrument: Bruker MicrOTOF-Q
Instrument type: LC-ESI-QTOF
Ms type: MS2
Ion mode: POSITIVE
Ionization: ESI
Collision energy: 35.00
Column name: Acquity CSHC18
Retention time: NA
Base peak: 362.0840
Precursor m/z: 362.0840
Precursor type: [M+Na]+
m/z	relative intensity
134.0609	549
160.0403	694
172.0078	999
178.0459	584
190.0083	569
201.0105	558
215.9939	618
219.0194	750
252.038	471
