Mass spectrum: 4-methylumbelliferone; LC-ESI-QTOF; MS2; CE: 15;  [M-H]-
Name: 4-methylumbelliferone
Class: NA
Formula: C10H8O3
Exact mass: 176.0473
SMILES: CC1=CC(=O)OC2=C1C=CC(=C2)O
InChI: InChI=1S/C10H8O3/c1-6-4-10(12)13-9-5-7(11)2-3-8(6)9/h2-5,11H,1H3
Instrument: Bruker MicrOTOF-Q
Instrument type: LC-ESI-QTOF
Ms type: MS2
Ion mode: NEGATIVE
Ionization: ESI
Collision energy: 15
Column name: Acquity CSHC18
Retention time: NA
Base peak: 175.0401
Precursor m/z: 175.0401
Precursor type: [M-H]-
m/z	relative intensity
89.4887	69
145.7128	242
151.2117	18
155.3005	19
157.0272	29
157.6985	23
158.7387	13
161.486	20
165.5343	16
167.683	17
168.2669	17
168.962	14
170.0779	20
171.445	15
177.354	999
183.2677	9
184.3021	9
186.3117	16
189.2669	11
192.8459	10
194.4912	9
197.8418	9
199.8871	13
202.1793	21
203.4752	20
206.016	20
206.5311	22
208.2089	16
210.3888	19
218.6087	19
220.6579	18
223.2771	15
230.9437	17
231.6801	19
236.4442	10
237.93	13
245.5678	14
247.0356	10
249.7036	16
254.4805	14
257.0322	17
261.0979	23
262.6477	9
264.647	18
265.1668	21
266.1341	21
274.8996	22
284.7907	16
288.1197	9
290.7527	16
296.5858	13
297.2612	16
299.5421	15
300.7462	17
303.0919	21
308.9897	15
313.4716	21
317.4495	12
326.9905	10
344.883	12
362.538	10
368.7339	16
375.222	14
392.1396	14
394.514	12
400.0939	16
407.1412	15
411.8981	10
414.9361	17
462.7418	10
486.1737	20
514.0642	11
545.7282	13
550.4218	15
571.8241	13
621.6027	9
638.7004	10
878.417	18
1002.0125	10
