Mass spectrum: L-Tryptophan; LC-ESI-QTOF; MS2; CE: 35;  [M-H]-
Name: L-Tryptophan
Class: NA
Formula: C11H12N2O2
Exact mass: 204.0899
SMILES: C1=CC=C2C(=C1)C(=CN2)CC(C(=O)O)N
InChI: InChI=1S/C11H12N2O2/c12-9(11(14)15)5-7-6-13-10-4-2-1-3-8(7)10/h1-4,6,9,13H,5,12H2,(H,14,15)
Instrument: Bruker MicrOTOF-Q
Instrument type: LC-ESI-QTOF
Ms type: MS2
Ion mode: NEGATIVE
Ionization: ESI
Collision energy: 35
Column name: Acquity CSHC18
Retention time: NA
Base peak: 203.0823
Precursor m/z: 203.0823
Precursor type: [M-H]-
m/z	relative intensity
116.0448	914
116.0511	999
