Mass spectrum: Enterodiol; LC-ESI-ITFT; MS2; CE: 100;  [M-H]-
Name: Enterodiol
Class: Lignans, neolignans and related compounds; Dibenzylbutane lignans; Dibenzylbutanediol lignans
Formula: C18H22O4
Exact mass: 302.15181
SMILES: OC[C@H](CC1=CC(O)=CC=C1)[C@H](CO)CC1=CC(O)=CC=C1
InChI: InChI=1S/C18H22O4/c19-11-15(7-13-3-1-5-17(21)9-13)16(12-20)8-14-4-2-6-18(22)10-14/h1-6,9-10,15-16,19-22H,7-8,11-12H2/t15-,16-/m0/s1
Instrument: Thermo Scientific Q-Exactive Focus
Instrument type: LC-ESI-ITFT
Ms type: MS2
Ion mode: NEGATIVE
Ionization: ESI
Collision energy: 100
Column name: Acquity CSHC18
Retention time: 2.584 min
Base peak: 301.14453
Precursor m/z: 301.14453
Precursor type: [M-H]-
m/z	relative intensity
65.0384	846
67.0177	191
92.5154	999
99.1717	168
99.8505	169
119.049	190
121.0283	406
162.229	205
265.71	187
282.4603	183
