Mass spectrum: Bergapten; LC-ESI-QTOF; MS2; CE: 35.00;  [2M+Na]+
Name: Bergapten
Class: NA
Formula: C12H8O4
Exact mass: 216.0423
SMILES: COC1=C2C=CC(=O)OC2=CC3=C1C=CO3
InChI: InChI=1S/C12H8O4/c1-14-12-7-2-3-11(13)16-10(7)6-9-8(12)4-5-15-9/h2-6H,1H3
Instrument: Bruker MicrOTOF-Q
Instrument type: LC-ESI-QTOF
Ms type: MS2
Ion mode: POSITIVE
Ionization: ESI
Collision energy: 35.00
Column name: Acquity CSHC18
Retention time: NA
Base peak: 455.0738
Precursor m/z: 455.0738
Precursor type: [2M+Na]+
m/z	relative intensity
155.0167	33
173.0256	50
188.046	69
201.018	106
202.026	28
203.024	22
212.9874	92
214.5159	27
216.0409	456
217.0476	96
218.0573	24
223.5193	69
225.0128	48
228.5114	86
229.0219	30
230.5156	24
230.9967	89
232.5247	211
233.0189	51
233.5273	25
234.0178	59
236.0256	22
237.5178	176
238.0293	60
239.0316	999
240.0344	141
240.9822	138
241.5284	46
241.9887	30
245.0325	34
246.5218	614
247.0251	198
247.5245	25
248.0156	74
248.5155	45
249.0114	39
254.0329	226
254.5353	69
255.0333	27
255.5282	325
256.0303	109
256.5312	36
258.9918	189
263.0379	67
267.0223	27
277.0034	91
295.0161	36
