Mass spectrum: CYTOSINE; LC-ESI-QTOF; MS2; CE: 20;  [M+H]+
Name: CYTOSINE
Class: NA
Formula: C4H5N3O
Exact mass: 111.0433
SMILES: NC1=CC=NC(=O)N1
InChI: InChI=1S/C4H5N3O/c5-3-1-2-6-4(8)7-3/h1-2H,(H3,5,6,7,8)
Instrument: Agilent 6530Â Q-TOF LC/MS
Instrument type: LC-ESI-QTOF
Ms type: MS2
Ion mode: POSITIVE
Ionization: ESI
Collision energy: 20
Column name: NA
Retention time: 0.200 min
Base peak: 112.05132
Precursor m/z: 112.05132
Precursor type: [M+H]+
Precursor intensity: 68.5
m/z	relative intensity
40.0191	24
42.0342	88
43.0308	106
52.0184	135
67.0287	194
68.0131	226
69.0444	228
94.0398	300
95.0234	513
112.0486	999
