Mass spectrum: Coumarin; LC-ESI-ITFT; MS2; CE: 45eV;  [M+H]+
Name: Coumarin
Class: coumarin
Formula: C9H6O2
Exact mass: 146.0368
SMILES: C1=CC=C2C(=C1)C=CC(=O)O2
InChI: InChI=1S/C9H6O2/c10-9-6-5-7-3-1-2-4-8(7)11-9/h1-6H
Instrument: LTQ Orbitrap XL, Thermo Scientfic; Dionex Ultimate 300
Instrument type: LC-ESI-ITFT
Ms type: MS2
Ion mode: POSITIVE
Ionization: ESI
Collision energy: 45eV
Column name: Alltima C18
Retention time: 17.81 min
Base peak: 147.0435
Precursor m/z: 147.0435
Precursor type: [M+H]+
m/z	relative intensity
90.9039	9
102.8481	999
103.9576	6
118.8496	6
128.7373	7
146.9427	18
