Mass spectrum: Glucoraphanin; LC-ESI-QTOF; MS2; CE: 25.35;  [M+H]+
Name: Glucoraphanin
Class: NA
Formula: C12H23NO10S3
Exact mass: 437.0484
SMILES: CS(=O)CCCCC(=NOS(=O)(=O)O)SC1C(C(C(C(O1)CO)O)O)O
InChI: InChI=1S/C12H23NO10S3/c1-25(18)5-3-2-4-8(13-23-26(19,20)21)24-12-11(17)10(16)9(15)7(6-14)22-12/h7,9-12,14-17H,2-6H2,1H3,(H,19,20,21)
Instrument: Bruker MicrOTOF-Q
Instrument type: LC-ESI-QTOF
Ms type: MS2
Ion mode: POSITIVE
Ionization: ESI
Collision energy: 25.35
Column name: Acquity CSHC18
Retention time: NA
Base peak: 438.0557
Precursor m/z: 438.0557
Precursor type: [M+H]+
m/z	relative intensity
114.0348	13
117.0348	5
118.9927	2
127.0386	7
128.0522	96
129.0486	28
130.0319	113
131.0479	20
132.0469	975
132.2026	1
132.2831	2
133.0492	76
134.0438	42
145.0494	7
146.0617	9
147.0483	8
148.0215	4
161.0104	4
163.0251	3
178.0377	20
196.0464	999
196.7254	2
197.0488	86
198.0433	88
199.0453	3
307.0708	4
325.0838	2
