Mass spectrum: L-Cystine; ESI-TOF; MS2; CE: 6.0000000;  [M+H]+
Name: L-Cystine
Class: NA
Formula: C6H12N2O4S2
Exact mass: 240.02385
SMILES: NC(CSSCC(N)C(O)=O)C(O)=O
InChI: InChI=1S/C6H12N2O4S2/c7-3(5(9)10)1-13-14-2-4(8)6(11)12/h3-4H,1-2,7-8H2,(H,9,10)(H,11,12)
Instrument: waters xevo g2 TOF
Instrument type: ESI-TOF
Ms type: MS2
Ion mode: POSITIVE
Ionization: ESI
Collision energy: 6.0000000
Column name: Acquity CSHC18
Retention time: 0.540 min
Base peak: 241.03185
Precursor m/z: 241.03185
Precursor type: [M+H]+
m/z	relative intensity
74.0245	80
76.0223	27
96.9619	352
105.001	159
113.0786	27
117.9806	16
120.0119	114
122.0275	806
123.0301	19
124.0236	38
130.9486	4
131.9511	77
133.9296	25
137.9881	608
149.0068	9
151.9514	8
151.984	459
152.9883	27
153.9996	39
162.9216	11
162.9907	17
172.9772	351
177.9994	46
182.9855	228
183.992	6
195.026	82
201.0074	26
220.9441	24
241.0315	999
242.0347	87
243.028	88
244.8672	3
251.0908	3
258.8836	8
273.8917	2
276.8986	5
279.0872	8
293.9419	24
296.852	4
414.9631	4
