Mass spectrum: 4-Methylcatechol; ESI-TOF; MS2; CE: 0.6458333;  [M+H]+
Name: 4-Methylcatechol
Class: NA
Formula: C7H8O2
Exact mass: 124.05243
SMILES: CC1=CC(O)=C(O)C=C1
InChI: InChI=1S/C7H8O2/c1-5-2-3-6(8)7(9)4-5/h2-4,8-9H,1H3
Instrument: waters xevo g2 TOF
Instrument type: ESI-TOF
Ms type: MS2
Ion mode: POSITIVE
Ionization: ESI
Collision energy: 0.6458333
Column name: Acquity CSHC18
Retention time: 2.167 min
Base peak: 125.06043
Precursor m/z: 125.06043
Precursor type: [M+H]+
m/z	relative intensity
65.0399	50
66.0474	43
67.0556	296
68.0591	17
68.9992	57
73.0293	3
76.0086	4
77.0398	342
78.0471	83
79.0549	25
81.0357	6
82.0423	41
84.0533	8
85.0132	34
90.0055	21
93.0343	8
94.0417	135
95.0045	483
96.0101	36
98.0698	2
99.0107	85
101.0264	33
105.023	22
106.0423	20
106.5039	4
107.0499	8
108.0347	69
109.0469	23
110.0366	188
112.048	17
113.9905	55
114.9488	4
115.5093	6
116.9994	5
121.0021	28
122.0046	45
122.5117	7
123.1768	72
124.0161	57
125.0152	424
126.021	36
127.0575	22
128.021	63
128.5233	8
130.0149	3
130.5225	10
131.0157	29
131.5177	9
132.0078	18
132.5366	5
132.9967	56
135.0241	12
135.509	4
135.9937	34
136.5099	3
137.0602	107
137.5276	14
138.0638	4
139.0344	55
140.0374	17
142.2213	28
143.0714	3
144.515	6
145.0179	40
145.5148	2
145.9944	31
146.5324	5
147.0453	2
147.9838	29
149.0086	48
149.5071	4
149.9912	60
150.5074	4
151.0242	92
151.5263	8
152.0124	55
153.0553	126
154.012	20
156.0742	16
157.0656	1
158.0224	7
159.0398	1
159.5195	4
160.0385	2
161.0259	125
161.9994	222
163.0071	32
164.9883	3
166.007	8
167.0299	60
168.0264	11
172.0293	48
172.5233	8
172.9735	13
173.9968	77
175.0182	44
176.0082	10
177.0086	124
178.0299	786
178.977	343
179.994	161
180.5153	1
181.0264	8
181.5359	2
182.0144	30
183.03	3
185.0316	5
189.9839	11
191.0311	6
192.0102	46
192.9839	35
193.9931	22
195.0015	36
195.9826	271
196.982	47
197.9836	13
199.0859	6
200.039	2
204.0222	5
205.0219	6
207.9823	129
209.0076	16
209.9981	44
211.0242	7
212.0014	2
212.9924	3
224.0333	1
224.9862	15
225.993	18
227.0545	12
228.0369	1
229.0624	1
237.0303	11
239.0031	6
240.0092	2
242.9502	2
246.0402	5
249.0096	3
255.0233	2
256.0411	6
262.0287	8
267.0616	5
268.0603	3
269.0362	31
270.033	42
271.0412	44
272.0416	108
273.0433	26
284.0367	10
285.03	5
286.0174	9
287.0244	7
291.0326	2
292.0315	5
294.0199	7
295.0065	15
296.0145	117
297.0164	55
298.0134	85
299.0033	83
300.0088	999
301.0127	282
302.0134	56
313.0154	1
314.0461	10
315.0294	50
316.0427	5
319.0344	1
322.9986	36
324.0018	7
327.0574	2
328.0322	7
329.0313	7
330.0193	145
331.0232	43
332.0237	8
339.9738	6
344.0573	4
345.0349	52
346.0104	27
350.0748	4
356.034	10
357.036	3
358.0351	8
360.0299	102
361.0339	24
362.0327	9
364.0265	2
378.0992	6
391.092	2
394.0716	38
395.0384	6
396.0741	3
408.1071	6
412.9432	3
421.062	1
422.0456	12
423.0688	2
424.0674	22
425.0864	15
426.0854	6
436.9358	1
446.0322	1
462.0097	17
463.0125	8
472.9839	2
477.9824	45
478.9866	24
481.1268	6
500.9711	5
501.9587	1
525.2895	4
596.0242	1
623.0108	5
777.9818	4
778.9953	6
780.0009	3
800.9786	5
801.9794	3
