Mass spectrum: H-Ile-Val-OH; LC-ESI-QTOF; MS2; CE: 27.10;  [2M+H]+
Name: H-Ile-Val-OH
Class: NA
Formula: C11H22N2O3
Exact mass: 230.1630
SMILES: CCC(C)C(C(=O)NC(C(C)C)C(=O)O)N
InChI: InChI=1S/C11H22N2O3/c1-5-7(4)8(12)10(14)13-9(6(2)3)11(15)16/h6-9H,5,12H2,1-4H3,(H,13,14)(H,15,16)
Instrument: Bruker MicrOTOF-Q
Instrument type: LC-ESI-QTOF
Ms type: MS2
Ion mode: POSITIVE
Ionization: ESI
Collision energy: 27.10
Column name: Acquity CSHC18
Retention time: NA
Base peak: 461.3334
Precursor m/z: 461.3334
Precursor type: [2M+H]+
m/z	relative intensity
185.17	42
186.16	17
213.16	34
214.16	16
231.17	999
232.17	115
233.17	35
250.91	8
329.79	9
