Mass spectrum: Isocitric acid; LC-ESI-QTOF; MS2; CE: 10;  [M-H]-
Name: Isocitric acid
Class: NA
Formula: C6H8O7
Exact mass: 192.0270
SMILES: C(C(C(C(=O)O)O)C(=O)O)C(=O)O
InChI: InChI=1S/C6H8O7/c7-3(8)1-2(5(10)11)4(9)6(12)13/h2,4,9H,1H2,(H,7,8)(H,10,11)(H,12,13)
Instrument: impact II
Instrument type: LC-ESI-QTOF
Ms type: MS2
Ion mode: NEGATIVE
Ionization: ESI
Collision energy: 10
Column name: Acquity CSHC18
Retention time: 1.871 min
Base peak: 191.0196
Precursor m/z: 191.0196
Precursor type: [M-H]-
m/z	relative intensity
85.0294	355
111.0086	999
117.0193	375
129.0193	237
154.9984	311
173.0092	394
191.0198	323
