Mass spectrum: Macarpine; ESI-QTOF; MS2; CE: 1, 35, 60;  [M+H]+
Name: Macarpine
Class: Benzylisoquinoline (subclass:Benzophenanthridine) alkaloid
Formula: [C22H18NO6]+
Exact mass: 392.1129
SMILES: C[N+]1=CC2=C3C(=CC(=C2C4=C1C5=CC6=C(C=C5C(=C4)OC)OCO6)OC)OCO3
InChI: InChI=1S/C22H18NO6/c1-23-8-14-20(18(25-3)7-19-22(14)29-10-28-19)13-6-15(24-2)11-4-16-17(27-9-26-16)5-12(11)21(13)23/h4-8H,9-10H2,1-3H3/q+1
Instrument: AB Sciex TripleToF 5500
Instrument type: ESI-QTOF
Ms type: MS2
Ion mode: POSITIVE
Ionization: ESI
Collision energy: 1, 35, 60
Column name: Acquity CSHC18
Retention time: 7.856 min
Base peak: 393.1181
Precursor m/z: 393.1181
Precursor type: [M+H]+
Precursor intensity: 265722.7
m/z	relative intensity
205.0672	57
206.0763	122
220.0618	126
221.0682	138
233.0591	138
234.0645	143
260.0517	151
261.0578	163
262.0727	165
263.0712	174
274.0732	195
289.0519	203
290.0585	244
291.0776	249
293.0972	252
318.0614	287
331.0802	303
332.0687	354
334.0848	382
335.07	399
345.0525	426
347.0432	477
349.0634	504
361.0982	859
364.0889	999
