Mass spectrum: Sphingosine 1-phosphate; LC-ESI-ITFT; MS2; CE: 100;  [M-H]-
Name: Sphingosine 1-phosphate
Class: Lipids and lipid-like molecules; Sphingolipids; Phosphosphingolipids
Formula: C18H38NO5P
Exact mass: 379.24876
SMILES: CCCCCCCCCCCCC\C=C\[C@@H](O)[C@@H](N)COP(O)(O)=O
InChI: InChI=1S/C18H38NO5P/c1-2-3-4-5-6-7-8-9-10-11-12-13-14-15-18(20)17(19)16-24-25(21,22)23/h14-15,17-18,20H,2-13,16,19H2,1H3,(H2,21,22,23)/b15-14+/t17-,18+/m0/s1
Instrument: Thermo Scientific Q-Exactive Focus
Instrument type: LC-ESI-ITFT
Ms type: MS2
Ion mode: NEGATIVE
Ionization: ESI
Collision energy: 100
Column name: Acquity CSHC18
Retention time: 2.587 min
Base peak: 378.24149
Precursor m/z: 378.24149
Precursor type: [M-H]-
m/z	relative intensity
62.9629	19
78.9578	999
78.9762	1
92.5132	1
96.9684	1
