Mass spectrum: Orotic acid; LC-ESI-ITFT; MS2; CE: 40;  [M-H]-
Name: Orotic acid
Class: Organoheterocyclic compounds; Diazines; Pyrimidines and pyrimidine derivatives
Formula: C5H4N2O4
Exact mass: 156.01711
SMILES: OC(=O)C1=CC(=O)NC(=O)N1
InChI: InChI=1S/C5H4N2O4/c8-3-1-2(4(9)10)6-5(11)7-3/h1H,(H,9,10)(H2,6,7,8,11)
Instrument: Thermo Scientific Q-Exactive Focus
Instrument type: LC-ESI-ITFT
Ms type: MS2
Ion mode: NEGATIVE
Ionization: ESI
Collision energy: 40
Column name: Acquity CSHC18
Retention time: 1.479 min
Base peak: 155.00983
Precursor m/z: 155.00983
Precursor type: [M-H]-
m/z	relative intensity
60.1532	364
62.2138	391
67.0289	786
68.0129	999
69.0688	368
105.8559	396
111.0188	501
132.7147	365
141.722	386
169.7986	379
