Mass spectrum: Ginkgolide B; LC-ESI-QFT; MS2; CE: 15,30,45 (NCE);  [M+Cl]-
Name: Ginkgolide B
Class: NA
Formula: C20H24O10
Exact mass: 424.1369
SMILES: CC1C(=O)OC2C(O)C34C5CC(C(C)(C)C)C33C(O)C(=O)OC3OC4(C(=O)O5)C12O
InChI: InChI=1S/C20H24O10/c1-6-12(23)28-11-9(21)18-8-5-7(16(2,3)4)17(18)10(22)13(24)29-15(17)30-20(18,14(25)27-8)19(6,11)26/h6-11,15,21-22,26H,5H2,1-4H3
Instrument: QE Focus, Thermo Scientfic; UPLC I-Class, Waters
Instrument type: LC-ESI-QFT
Ms type: MS2
Ion mode: NEGATIVE
Ionization: ESI
Collision energy: 15,30,45 (NCE)
Column name: Acquity CSHC18
Retention time: 2.074 min
Base peak: 459.1062
Precursor m/z: 459.1062
Precursor type: [M+Cl]-
Precursor intensity: 1539951
m/z	relative intensity
62.0796	219
72.9917	999
97.0281	307
261.1489	376
