Mass spectrum: Citrulline; ESI-TOF; MS2; CE: 0.6458333;  [M+H]+
Name: Citrulline
Class: NA
Formula: C6H13N3O3
Exact mass: 175.09569
SMILES: NC(CCCNC(N)=O)C(O)=O
InChI: InChI=1S/C6H13N3O3/c7-4(5(10)11)2-1-3-9-6(8)12/h4H,1-3,7H2,(H,10,11)(H3,8,9,12)
Instrument: waters xevo g2 TOF
Instrument type: ESI-TOF
Ms type: MS2
Ion mode: POSITIVE
Ionization: ESI
Collision energy: 0.6458333
Column name: Acquity CSHC18
Retention time: 0.534 min
Base peak: 176.10369
Precursor m/z: 176.10369
Precursor type: [M+H]+
m/z	relative intensity
68.0506	11
70.0663	999
71.0696	51
86.0611	69
95.0619	1
96.0452	26
97.0771	11
99.0449	6
102.0164	7
113.0719	576
114.056	134
115.0874	55
116.0716	33
124.9569	6
141.0671	7
142.0053	11
151.923	5
153.0353	1
159.0773	165
160.0802	11
171.0456	2
176.1038	75
177.107	4
