Mass spectrum: DIHYDROBIOPTERIN; LC-ESI-QFT; MS2; CE: 30eV;  [M+H]+
Name: DIHYDROBIOPTERIN
Class: NA
Formula: C9H13N5O3
Exact mass: 239.10184
SMILES: CC(C(C1=NC2=C(NC1)NC(=NC2=O)N)O)O
InChI: InChI=1S/C9H13N5O3/c1-3(15)6(16)4-2-11-7-5(12-4)8(17)14-9(10)13-7/h3,6,15-16H,2H2,1H3,(H4,10,11,13,14,17)
Instrument: Q-Exactive Orbitrap, Thermo Scientfic; Ultimate 3000 HPLC, Thermo Scientfic
Instrument type: LC-ESI-QFT
Ms type: MS2
Ion mode: POSITIVE
Ionization: ESI
Collision energy: 30eV
Column name: Acquity CSHC18
Retention time: 0.923 min
Base peak: 240.1091
Precursor m/z: 240.1091
Precursor type: [M+H]+
Precursor intensity: 118
m/z	relative intensity
50.6225	2
51.5017	2
52.6059	2
55.6946	2
56.8375	2
57.0156	2
60.8139	2
61.2337	2
64.8029	2
65.0922	2
66.6925	2
74.5551	2
86.0356	7
89.1116	3
95.2095	3
95.7304	2
98.4867	2
126.0665	5
127.0617	19
128.5283	3
140.057	17
145.6577	3
152.0568	11
154.0612	14
154.0725	72
164.0567	24
165.0647	449
166.0727	197
167.0757	3
168.0882	454
169.0916	6
178.0725	52
179.0567	5
179.0806	94
180.0882	181
181.4259	3
195.0755	47
196.0832	999
197.0871	33
204.0887	22
205.0723	3
206.8892	3
221.087	7
222.0989	342
223.1022	15
239.0968	14
240.1092	441
241.1129	15
