Mass spectrum: Xanthine; LC-ESI-ITFT; MS2; CE: 40;  [M-H]-
Name: Xanthine
Class: Organoheterocyclic compounds; Imidazopyrimidines; Purines and purine derivatives
Formula: C5H4N4O2
Exact mass: 152.03343
SMILES: O=C1NC2=C(NC=N2)C(=O)N1
InChI: InChI=1S/C5H4N4O2/c10-4-2-3(7-1-6-2)8-5(11)9-4/h1H,(H3,6,7,8,9,10,11)
Instrument: Thermo Scientific Q-Exactive Focus
Instrument type: LC-ESI-ITFT
Ms type: MS2
Ion mode: NEGATIVE
Ionization: ESI
Collision energy: 40
Column name: Acquity CSHC18
Retention time: 1.476 min
Base peak: 151.02615
Precursor m/z: 151.02615
Precursor type: [M-H]-
m/z	relative intensity
65.9973	999
69.2763	28
77.0462	34
90.6626	33
97.5233	29
101.5258	30
108.0191	221
128.3106	33
163.6727	30
167.2407	30
