Mass spectrum: AZELATE; LC-ESI-QFT; MS2; CE: 30eV;  [M+H]+
Name: AZELATE
Class: NA
Formula: C9H16O4
Exact mass: 188.10486
SMILES: OC(=O)CCCCCCCC(O)=O
InChI: InChI=1S/C9H16O4/c10-8(11)6-4-2-1-3-5-7-9(12)13/h1-7H2,(H,10,11)(H,12,13)
Instrument: Q-Exactive Orbitrap, Thermo Scientfic; Ultimate 3000 HPLC, Thermo Scientfic
Instrument type: LC-ESI-QFT
Ms type: MS2
Ion mode: POSITIVE
Ionization: ESI
Collision energy: 30eV
Column name: Acquity CSHC18
Retention time: 7.470 min
Base peak: 189.1121
Precursor m/z: 189.1121
Precursor type: [M+H]+
Precursor intensity: 198
m/z	relative intensity
51.5805	142
54.1167	154
58.6383	167
63.3661	162
78.7035	205
80.4937	166
83.0859	189
97.1015	966
125.0962	999
136.2941	180
149.0236	222
152.4365	193
152.6989	227
189.1119	353
