Mass spectrum: Myrcene; APCI-ITFT; MS2; CE: 35 CID;  [M+H]+
Name: Myrcene
Class: NA
Formula: C10H16
Exact mass: 136.12520
SMILES: CC(=CCCC(=C)C=C)C
InChI: InChI=1S/C10H16/c1-5-10(4)8-6-7-9(2)3/h5,7H,1,4,6,8H2,2-3H3
Instrument: Orbitrap Elite
Instrument type: APCI-ITFT
Ms type: MS2
Ion mode: POSITIVE
Ionization: APCI
Collision energy: 35 CID
Column name: Acquity CSHC18
Retention time: 2.138 min
Base peak: 137.13210
Precursor m/z: 137.13210
Precursor type: [M+H]+
Precursor intensity: 33505.77
m/z	relative intensity
51.5593	33
55.2658	36
58.4148	39
67.8118	35
68.2818	36
74.4522	34
80.0809	32
80.9959	39
81.0694	274
84.0593	36
91.0538	42
91.7158	35
95.0599	372
95.0851	417
96.0435	59
96.0556	61
109.0648	228
109.0754	82
109.1008	36
109.5564	34
110.0594	112
110.0712	67
111.0557	115
115.4844	33
117.1183	34
117.8021	39
119.0477	51
120.0563	71
121.9069	34
131.2852	34
132.8128	38
136.0208	254
136.0496	268
136.0754	64
136.0863	243
137.0602	564
137.0706	222
137.0814	999
137.0956	515
137.1323	593
