Mass spectrum: 12-HETE; LC-ESI-ITFT; MS2; CE: 10;  [M-H]-
Name: 12-HETE
Class: Lipids and lipid-like molecules; Fatty Acyls; Eicosanoids
Formula: C20H32O3
Exact mass: 320.23514
SMILES: CCCCC/C=C\CC(/C=C\C=C/C/C=C/CCCC(=O)O)O
InChI: InChI=1S/C20H32O3/c1-2-3-4-5-10-13-16-19(21)17-14-11-8-6-7-9-12-15-18-20(22)23/h7-11,13-14,17,19,21H,2-6,12,15-16,18H2,1H3,(H,22,23)/b9-7+,11-8-,13-10-,17-14-
Instrument: Thermo Scientific Q-Exactive Focus
Instrument type: LC-ESI-ITFT
Ms type: MS2
Ion mode: NEGATIVE
Ionization: ESI
Collision energy: 10
Column name: Acquity CSHC18
Retention time: 0.364 min
Base peak: 319.22787
Precursor m/z: 319.22787
Precursor type: [M-H]-
m/z	relative intensity
135.1168	27
139.1116	16
163.1118	44
179.1068	293
207.1019	14
208.1097	42
240.0998	14
257.2272	87
301.217	169
319.2276	999
