Mass spectrum: Jasmonic acid; LC-ESI-ITFT; MS2; CE: 30;  [M+H]+
Name: Jasmonic acid
Class: Lipids and lipid-like molecules; Fatty Acyls; Lineolic acids and derivatives
Formula: C12H18O3
Exact mass: 210.12559
SMILES: CC\C=C/C[C@@H]1[C@@H](CC(O)=O)CCC1=O
InChI: InChI=1S/C12H18O3/c1-2-3-4-5-10-9(8-12(14)15)6-7-11(10)13/h3-4,9-10H,2,5-8H2,1H3,(H,14,15)/b4-3-/t9-,10-/m1/s1
Instrument: Thermo Scientific Q-Exactive Focus
Instrument type: LC-ESI-ITFT
Ms type: MS2
Ion mode: POSITIVE
Ionization: ESI
Collision energy: 30
Column name: Acquity CSHC18
Retention time: 0.917 min
Base peak: 211.13287
Precursor m/z: 211.13287
Precursor type: [M+H]+
m/z	relative intensity
67.0548	734
69.0704	414
79.0547	471
81.0703	933
91.0546	843
93.0703	431
95.0495	421
105.0702	999
109.0651	651
133.1013	493
