Mass spectrum: 1a,1b-dihomo Prostaglandin E1; ESI-TOF; MS2; CE: 6.0000000;  [M+H]+
Name: 1a,1b-dihomo Prostaglandin E1
Class: NA
Formula: C22H38O5
Exact mass: 382.27192
SMILES: CCCCCC(O)/C=C/[C@H]1C(O)CC(=O)C1CCCCCCCCC(=O)O
InChI: InChI=1S/C22H38O5/c1-2-3-8-11-17(23)14-15-19-18(20(24)16-21(19)25)12-9-6-4-5-7-10-13-22(26)27/h14-15,17-19,21,23,25H,2-13,16H2,1H3,(H,26,27)/b15-14+/t17?,18?,19-,21?/m1/s1
Instrument: waters xevo g2 TOF
Instrument type: ESI-TOF
Ms type: MS2
Ion mode: POSITIVE
Ionization: ESI
Collision energy: 6.0000000
Column name: Acquity CSHC18
Retention time: 4.152 min
Base peak: 383.27992
Precursor m/z: 383.27992
Precursor type: [M+H]+
m/z	relative intensity
121.0837	1
149.1335	2
159.1172	1
173.1332	8
202.1119	10
219.1397	14
221.1537	10
231.1744	8
283.2441	3
285.2231	2
291.23	4
293.2484	64
294.2486	11
301.253	41
303.2309	25
304.2341	4
305.1773	16
311.2364	28
317.2464	29
318.2497	2
319.2633	42
320.2686	8
326.3764	17
327.3841	3
329.2477	999
330.2507	235
331.2556	28
347.2576	646
348.2174	72
361.2733	24
365.2688	751
366.2731	184
367.2745	25
384.2445	45
384.7427	11
