Mass spectrum: Acacetin; LC-ESI-ITFT; MS2; CE: 45eV;  [M+H]+
Name: Acacetin
Class: Flavonoid
Formula: C16H12O5
Exact mass: 284.0685
SMILES: COC1=CC=C(C=C1)C2=CC(=O)C3=C(C=C(C=C3O2)O)O
InChI: InChI=1S/C16H12O5/c1-20-11-4-2-9(3-5-11)14-8-13(19)16-12(18)6-10(17)7-15(16)21-14/h2-8,17-18H,1H3
Instrument: LTQ Orbitrap XL, Thermo Scientfic; Dionex Ultimate 300
Instrument type: LC-ESI-ITFT
Ms type: MS2
Ion mode: POSITIVE
Ionization: ESI
Collision energy: 45eV
Column name: Alltima C18
Retention time: 20.68 min
Base peak: 285.0760
Precursor m/z: 285.0760
Precursor type: [M+H]+
m/z	relative intensity
133.0097	17
158.977	10
229.2127	1
239.1071	7
249.1743	9
267.1919	11
270.0346	999
