Mass spectrum: GMP; LC-ESI-QTOF; MS2; CE: 30;  [M+H]+
Name: GMP
Class: Purine ribonucleoside monophosphates
Formula: C10H14N5O8P
Exact mass: 363.05800
SMILES: NC1=NC2=C(N=CN2[C@@H]2O[C@H](COP(O)(O)=O)[C@@H](O)[C@H]2O)C(=O)N1
InChI: InChI=1S/C10H14N5O8P/c11-10-13-7-4(8(18)14-10)12-2-15(7)9-6(17)5(16)3(23-9)1-22-24(19,20)21/h2-3,5-6,9,16-17H,1H2,(H2,19,20,21)(H3,11,13,14,18)/t3-,5-,6-,9-/m1/s1
Instrument: impact II
Instrument type: LC-ESI-QTOF
Ms type: MS2
Ion mode: POSITIVE
Ionization: ESI
Collision energy: 30
Column name: Acquity CSHC18
Retention time: 1.671 min
Base peak: 364.06550
Precursor m/z: 364.06550
Precursor type: [M+H]+
m/z	relative intensity
97.0283	44
98.0329	3
98.9847	2
109.0508	2
110.035	12
134.0461	1
135.03	46
136.0329	2
152.0564	999
152.0709	89
152.086	2
152.1121	3
152.1346	5
152.1451	6
152.1557	15
152.174	4
152.2239	4
152.2626	1
152.2713	2
152.28	1
152.4164	2
152.4452	1
153.0409	6
153.0593	78
154.0605	2
194.0663	2
203.0513	2
362.2423	3
363.1262	1
363.1633	7
365.1067	4
365.1782	2
