Mass spectrum: Cysteic acid; LC-ESI-ITFT; MS2; CE: 40;  [M-H]-
Name: Cysteic acid
Class: Organic acids and derivatives; Carboxylic acids and derivatives; Amino acids, peptides, and analogues
Formula: C3H7NO5S
Exact mass: 169.00449
SMILES: NC(CS(O)(=O)=O)C(O)=O
InChI: InChI=1S/C3H7NO5S/c4-2(3(5)6)1-10(7,8)9/h2H,1,4H2,(H,5,6)(H,7,8,9)
Instrument: Thermo Scientific Q-Exactive Focus
Instrument type: LC-ESI-ITFT
Ms type: MS2
Ion mode: NEGATIVE
Ionization: ESI
Collision energy: 40
Column name: Acquity CSHC18
Retention time: 1.475 min
Base peak: 167.99722
Precursor m/z: 167.99722
Precursor type: [M-H]-
m/z	relative intensity
63.0019	5
63.9612	6
71.0126	152
74.2197	5
79.9561	117
80.9639	999
90.3447	5
132.3092	5
162.8302	5
185.7227	5
