Mass spectrum: 1,2-dioleoyl-sn-glycero-3-phosphocholine; ESI-TOF; MS2; CE: 0.6458333;  [M+H]+
Name: 1,2-dioleoyl-sn-glycero-3-phosphocholine
Class: NA
Formula: C44H84NO8P
Exact mass: 785.59346
SMILES: [H]C(=C([H])C([H])([H])C([H])([H])C([H])([H])C([H])([H])C([H])([H])C([H])([H])C([H])([H])C([H])([H])[H])C([H])([H])C([H])([H])C([H])([H])C([H])([H])C([H])([H])C([H])([H])C([H])([H])C(=O)OC([H])([H])C([H])(OC(=O)C([H])([H])C([H])([H])C([H])([H])C([H])([H])C([H])([H])C([H])([H])C([H])([H])C([H])=C([H])C([H])([H])C([H])([H])C([H])([H])C([H])([H])C([H])([H])C([H])([H])C([H])([H])C([H])([H])[H])C([H])([H])OP(=O)([O-])OC([H])([H])C([H])([H])[N+](C([H])([H])[H])(C([H])([H])[H])C([H])([H])[H]
InChI: InChI=1S/C44H84NO8P/c1-6-8-10-12-14-16-18-20-22-24-26-28-30-32-34-36-43(46)50-40-42(41-52-54(48,49)51-39-38-45(3,4)5)53-44(47)37-35-33-31-29-27-25-23-21-19-17-15-13-11-9-7-2/h20-23,42H,6-19,24-41H2,1-5H3
Instrument: waters xevo g2 TOF
Instrument type: ESI-TOF
Ms type: MS2
Ion mode: POSITIVE
Ionization: ESI
Collision energy: 0.6458333
Column name: Acquity CSHC18
Retention time: 11.338 min
Base peak: 786.60146
Precursor m/z: 786.60146
Precursor type: [M+H]+
m/z	relative intensity
86.0975	39
104.1069	2
125.0005	10
163.0159	6
184.074	999
185.0772	60
186.0783	9
305.2332	1
321.2109	107
322.214	27
337.183	3
445.2724	9
451.1671	1
504.3452	108
505.3484	42
506.3508	6
522.359	1
604.541	8
625.517	4
664.4463	7
664.9475	7
665.4502	2
749.5093	17
750.512	5
751.5236	1
786.6001	765
787.6039	395
