Mass spectrum: Glyoxylic acid; LC-ESI-ITFT; MS2; CE: 20;  [M-H]-
Name: Glyoxylic acid
Class: Organic acids and derivatives; Carboxylic acids and derivatives; Carboxylic acids
Formula: C2H2O3
Exact mass: 74.00039
SMILES: OC(=O)C=O
InChI: InChI=1S/C2H2O3/c3-1-2(4)5/h1H,(H,4,5)
Instrument: Thermo Scientific Q-Exactive Focus
Instrument type: LC-ESI-ITFT
Ms type: MS2
Ion mode: NEGATIVE
Ionization: ESI
Collision energy: 20
Column name: Acquity CSHC18
Retention time: 0.644 min
Base peak: 72.99312
Precursor m/z: 72.99312
Precursor type: [M-H]-
m/z	relative intensity
51.5887	200
55.0126	196
55.1567	218
56.4804	207
72.9919	999
77.9135	201
78.6438	200
81.6366	198
87.4873	205
87.8759	199
