Mass spectrum: Lactulose; ESI-TOF; MS2; CE: 6.0000000;  [M+H]+
Name: Lactulose
Class: NA
Formula: C12H22O11
Exact mass: 342.11621
SMILES: OCC1OC(OC2C(CO)OC(O)(CO)C2O)C(O)C(O)C1O
InChI: InChI=1S/C12H22O11/c13-1-4-6(16)7(17)8(18)11(21-4)22-9-5(2-14)23-12(20,3-15)10(9)19/h4-11,13-20H,1-3H2
Instrument: waters xevo g2 TOF
Instrument type: ESI-TOF
Ms type: MS2
Ion mode: POSITIVE
Ionization: ESI
Collision energy: 6.0000000
Column name: Acquity CSHC18
Retention time: 0.562 min
Base peak: 343.12421
Precursor m/z: 343.12421
Precursor type: [M+H]+
m/z	relative intensity
85.0291	298
97.0291	116
109.0288	26
127.0395	769
128.0426	40
131.9761	20
140.9959	229
154.991	227
163.0613	68
172.9784	572
183.9888	73
197.9634	1
198.9691	1
202.5481	65
236.9394	47
236.9406	28
258.1742	32
289.0925	96
306.0041	223
325.1123	189
347.0954	1
360.1509	264
361.1553	23
365.1059	999
366.1094	1
381.08	30
396.0355	229
397.0425	70
456.0561	1
487.1643	32
649.2182	61
702.2679	46
707.22	140
738.1496	173
739.1603	77
