Mass spectrum: Indoxyl beta-D-glucoside; LC-ESI-QTOF; MS2; CE: -10, -35, -60V;  [M-H]-
Name: Indoxyl beta-D-glucoside
Class: NA
Formula: C14H17NO6
Exact mass: 295.1056
SMILES: C1=CC=C2C(=C1)C(=CN2)OC3C(C(C(C(O3)CO)O)O)O
InChI: InChI=1S/C14H17NO6/c16-6-10-11(17)12(18)13(19)14(21-10)20-9-5-15-8-4-2-1-3-7(8)9/h1-5,10-19H,6H2
Instrument: TripleToF 5600; Sciex
Instrument type: LC-ESI-QTOF
Ms type: MS2
Ion mode: NEGATIVE
Ionization: ESI
Collision energy: -10, -35, -60V
Column name: Acquity CSHC18
Retention time: 5.038 min
Base peak: 294.1006
Precursor m/z: 294.1006
Precursor type: [M-H]-
Precursor intensity: 9963.19
m/z	relative intensity
161.0441	273
201.1646	139
208.1374	138
214.1824	999
215.1856	136
246.1702	136
294.0958	273
