Mass spectrum: zymosterol; ESI-TOF; MS2; CE: 6.0000000;  [M+H]+
Name: zymosterol
Class: NA
Formula: C27H44O
Exact mass: 384.33922
SMILES: [H]OC1([H])(C([H])([H])C([H])([H])C2(C3=C(C([H])([H])C([H])([H])C2([H])(C1([H])([H])))C4([H])(C([H])([H])C([H])([H])C([H])(C([H])(C([H])([H])[H])C([H])([H])C([H])([H])C([H])=C(C([H])([H])[H])C([H])([H])[H])C4(C([H])([H])[H])(C([H])([H])C3([H])([H]))))(C([H])([H])[H]))
InChI: InChI=1S/C27H44O/c1-18(2)7-6-8-19(3)23-11-12-24-22-10-9-20-17-21(28)13-15-26(20,4)25(22)14-16-27(23,24)5/h7,19-21,23-24,28H,6,8-17H2,1-5H3
Instrument: waters xevo g2 TOF
Instrument type: ESI-TOF
Ms type: MS2
Ion mode: POSITIVE
Ionization: ESI
Collision energy: 6.0000000
Column name: Acquity CSHC18
Retention time: 10.273 min
Base peak: 385.34722
Precursor m/z: 385.34722
Precursor type: [M+H]+
m/z	relative intensity
121.1016	6
125.9864	19
149.1331	19
175.148	19
203.1807	46
204.1862	18
215.1803	61
217.1959	16
229.1956	17
285.2575	27
323.226	27
323.2265	24
367.337	999
368.3409	294
369.3288	37
384.3386	86
385.3447	149
386.3479	30
407.3295	37
445.3463	25
617.0079	39
617.5044	23
788.6579	67
789.1614	66
789.6634	52
790.1587	12
791.6687	76
792.6696	43
980.837	23
981.3291	23
981.8406	19
