Mass spectrum: Nicotinic acid; LC-ESI-QTOF; MS2; CE: 15.00;  [M+H]+
Name: Nicotinic acid
Class: NA
Formula: C6H5NO2
Exact mass: 123.0320
SMILES: C1=CC(=CN=C1)C(=O)O
InChI: InChI=1S/C6H5NO2/c8-6(9)5-2-1-3-7-4-5/h1-4H,(H,8,9)
Instrument: Bruker MicrOTOF-Q
Instrument type: LC-ESI-QTOF
Ms type: MS2
Ion mode: POSITIVE
Ionization: ESI
Collision energy: 15.00
Column name: Acquity CSHC18
Retention time: NA
Base peak: 124.0393
Precursor m/z: 124.0393
Precursor type: [M+H]+
m/z	relative intensity
78.03	2
80.05	2
94.03	1
96.04	2
106.03	28
107.03	3
122.02	31
123.03	2
123.41	1
123.47	1
123.54	1
124.04	999
124.19	2
124.29	2
124.38	1
124.45	1
124.55	1
125.04	61
140.03	3
