Mass spectrum: 8-iso-17-phenyl trinor Prostaglandin F2-beta; ESI-TOF; MS2; CE: 6.0000000;  [M+H]+
Name: 8-iso-17-phenyl trinor Prostaglandin F2-beta
Class: NA
Formula: C23H32O5
Exact mass: 388.22497
SMILES: O[C@H]1[C@@H](C/C=C\CCCC(O)=O)[C@@H](/C=C/[C@@H](O)CCC2=CC=CC=C2)[C@H](O)C1
InChI: InChI=1S/C23H32O5/c24-18(13-12-17-8-4-3-5-9-17)14-15-20-19(21(25)16-22(20)26)10-6-1-2-7-11-23(27)28/h1,3-6,8-9,14-15,18-22,24-26H,2,7,10-13,16H2,(H,27,28)/b6-1-,15-14+/t18-,19-,20+,21+,22+/m0/s1
Instrument: waters xevo g2 TOF
Instrument type: ESI-TOF
Ms type: MS2
Ion mode: POSITIVE
Ionization: ESI
Collision energy: 6.0000000
Column name: Acquity CSHC18
Retention time: 3.300 min
Base peak: 389.23297
Precursor m/z: 389.23297
Precursor type: [M+H]+
m/z	relative intensity
117.0707	67
131.0869	482
132.0895	34
143.0879	8
145.1031	7
161.097	27
167.0961	3
169.1018	10
174.0867	15
180.1321	6
187.112	19
191.0989	8
196.0844	49
196.5852	9
205.1226	77
206.1276	5
207.1176	104
219.13	9
231.1363	32
239.1411	5
241.1436	13
253.1213	3
255.1375	8
269.1491	4
273.1636	23
275.2767	25
289.1574	15
291.1745	41
293.1853	5
299.1792	34
300.1861	8
301.1116	9
309.1854	83
310.1916	16
311.1992	4
317.1904	159
318.1937	32
335.2005	999
336.2038	232
337.2107	55
338.2183	6
352.1121	79
353.1671	244
354.2164	107
355.2197	12
367.2232	3
371.2224	95
372.223	14
