Mass spectrum: 5-Hydroxylysine; ESI-TOF; MS2; CE: 6.0000000;  [M+H]+
Name: 5-Hydroxylysine
Class: NA
Formula: C6H14N2O3
Exact mass: 162.10044
SMILES: NCC(O)CCC(N)C(O)=O
InChI: InChI=1S/C6H14N2O3/c7-3-4(9)1-2-5(8)6(10)11/h4-5,9H,1-3,7-8H2,(H,10,11)
Instrument: waters xevo g2 TOF
Instrument type: ESI-TOF
Ms type: MS2
Ion mode: POSITIVE
Ionization: ESI
Collision energy: 6.0000000
Column name: Acquity CSHC18
Retention time: 0.479 min
Base peak: 163.10844
Precursor m/z: 163.10844
Precursor type: [M+H]+
m/z	relative intensity
74.0244	12
82.066	139
96.9618	57
99.0931	8
100.0762	100
101.0353	2
110.0611	3
113.0797	12
116.0712	7
127.0873	61
128.0713	167
129.0638	220
131.9513	19
133.9291	8
137.9915	87
142.9643	51
145.0978	999
146.0822	487
147.0855	34
149.9611	15
151.9232	1
154.0196	1
163.1081	963
164.0439	42
