Mass spectrum: Aminoadipic acid; ESI-TOF; MS2; CE: 0.6458333;  [M+H]+
Name: Aminoadipic acid
Class: NA
Formula: C6H11NO4
Exact mass: 161.06881
SMILES: NC(CCCC(O)=O)C(O)=O
InChI: InChI=1S/C6H11NO4/c7-4(6(10)11)2-1-3-5(8)9/h4H,1-3,7H2,(H,8,9)(H,10,11)
Instrument: waters xevo g2 TOF
Instrument type: ESI-TOF
Ms type: MS2
Ion mode: POSITIVE
Ionization: ESI
Collision energy: 0.6458333
Column name: Acquity CSHC18
Retention time: 1.192 min
Base peak: 162.07681
Precursor m/z: 162.07681
Precursor type: [M+H]+
m/z	relative intensity
70.0662	57
71.0702	2
74.9527	3
98.0605	999
106.9889	3
122.9966	2
124.9927	142
136.0077	72
144.066	97
152.9876	144
154.0174	28
158.0037	4
166.0476	43
169.9899	134
170.9843	24
171.9916	45
173.9864	19
182.0134	119
197.9839	14
249.0322	95
250.0386	21
268.051	24
295.0372	40
296.0448	47
325.0708	165
341.0424	49
342.048	11
394.9698	2
468.1287	6
