Mass spectrum: Prostaglandin E2 Ethanolamide; ESI-TOF; MS2; CE: 6.0000000;  [M+H]+
Name: Prostaglandin E2 Ethanolamide
Class: NA
Formula: C22H37NO5
Exact mass: 395.26717
SMILES: CCCCC[C@H](O)\C=C\[C@H]1[C@@H](O)CC(=O)[C@@H]1C\C=C/CCCC(=O)NCCO
InChI: InChI=1S/C22H37NO5/c1-2-3-6-9-17(25)12-13-19-18(20(26)16-21(19)27)10-7-4-5-8-11-22(28)23-14-15-24/h4,7,12-13,17-19,21,24-25,27H,2-3,5-6,8-11,14-16H2,1H3,(H,23,28)/b7-4-,13-12+/t17-,18+,19+,21-/m0/s1
Instrument: waters xevo g2 TOF
Instrument type: ESI-TOF
Ms type: MS2
Ion mode: POSITIVE
Ionization: ESI
Collision energy: 6.0000000
Column name: Acquity CSHC18
Retention time: 3.169 min
Base peak: 396.27517
Precursor m/z: 396.27517
Precursor type: [M+H]+
m/z	relative intensity
128.0255	4
186.5968	2
199.6038	12
208.6093	32
273.1857	1
275.2768	5
294.0977	4
299.2022	7
306.2419	16
308.2582	27
309.2614	5
332.2586	2
334.2382	21
335.2417	4
342.2429	34
343.2403	3
350.269	4
360.2537	360
361.2572	90
362.2607	9
378.2643	999
379.2687	269
380.2723	37
381.2698	2
396.2178	3
