Mass spectrum: Salirepin-7-sulfate; LC-ESI-ITFT; MS2; CE: 20/50eV;  [M-H]-
Name: Salirepin-7-sulfate
Class: Salicinoid
Formula: C13H18O11S
Exact mass: 382.0570
SMILES: OCC(O1)C(O)C(O)C(O)C1OC2=CC=C(O)C=C2COS(=O)(O)=O
InChI: InChI=1S/C13H18O11S/c14-4-9-10(16)11(17)12(18)13(24-9)23-8-2-1-7(15)3-6(8)5-22-25(19,20)21/h1-3,9-18H,4-5H2,(H,19,20,21)
Instrument: Bruker timsTOF
Instrument type: LC-ESI-ITFT
Ms type: MS2
Ion mode: NEGATIVE
Ionization: ESI
Collision energy: 20/50eV
Column name: Acquity CSHC18
Retention time: 1.202 min
Base peak: 381.0494
Precursor m/z: 381.0494
Precursor type: [M-H]-
Precursor intensity: 7351.81
m/z	relative intensity
96.9602	387
381.0497	999
