Mass spectrum: 2-Naphthol; LC-ESI-QTOF; MS2; CE: 50eV;  [M-H]-
Name: 2-Naphthol
Class: Naphthol
Formula: C10H8O
Exact mass: 144.0575
SMILES: C1=CC=C2C=C(C=CC2=C1)O
InChI: InChI=1S/C10H8O/c11-10-6-5-8-3-1-2-4-9(8)7-10/h1-7,11H
Instrument: TIMS-TOF Pro, Bruker Daltonik; Elute UHPLC System, Bruker Daltonik
Instrument type: LC-ESI-QTOF
Ms type: MS2
Ion mode: NEGATIVE
Ionization: ESI
Collision energy: 50eV
Column name: Acquity CSHC18
Retention time: 7.858 min
Base peak: 143.0482
Precursor m/z: 143.0482
Precursor type: [M-H]-
Precursor intensity: 881.22
m/z	relative intensity
45.9364	80
60.5855	80
89.9855	463
114.045	999
142.9144	249
