Mass spectrum: 1-palmitoyl-2-glutaryl-sn-glycero-3-phosphocholine; ESI-TOF; MS2; CE: 6.0000000;  [M+H]+
Name: 1-palmitoyl-2-glutaryl-sn-glycero-3-phosphocholine
Class: NA
Formula: C29H56NO10P
Exact mass: 609.36418
SMILES: [H]OC(=O)C([H])([H])C([H])([H])C([H])([H])C(=O)OC([H])(C([H])([H])OC(=O)C([H])([H])C([H])([H])C([H])([H])C([H])([H])C([H])([H])C([H])([H])C([H])([H])C([H])([H])C([H])([H])C([H])([H])C([H])([H])C([H])([H])C([H])([H])C([H])([H])C([H])([H])[H])C([H])([H])OP(=O)([O-])OC([H])([H])C([H])([H])[N+](C([H])([H])[H])(C([H])([H])[H])C([H])([H])[H]
InChI: InChI=1S/C29H56NO10P/c1-5-6-7-8-9-10-11-12-13-14-15-16-17-20-28(33)37-24-26(40-29(34)21-18-19-27(31)32)25-39-41(35,36)38-23-22-30(2,3)4/h26H,5-25H2,1-4H3,(H-,31,32,35,36)
Instrument: waters xevo g2 TOF
Instrument type: ESI-TOF
Ms type: MS2
Ion mode: POSITIVE
Ionization: ESI
Collision energy: 6.0000000
Column name: Acquity CSHC18
Retention time: 7.365 min
Base peak: 610.37218
Precursor m/z: 610.37218
Precursor type: [M+H]+
m/z	relative intensity
168.5311	14
170.9968	44
177.5358	5
184.0741	13
196.5439	42
197.0458	3
240.0996	5
258.6426	7
267.6483	159
268.15	54
275.6351	14
276.6357	10
277.1362	7
309.6238	7
313.1653	3
314.0314	8
323.2558	4
324.6641	73
325.1649	22
325.6676	3
333.1203	3
356.5275	3
366.6385	6
427.3055	5
478.3301	50
479.3332	13
496.3393	2
591.3046	4
594.3753	9
595.3845	3
610.3732	999
611.3763	337
