Mass spectrum: Noscapine; LC-ESI-QTOF; MS2; CE: 23.56;  [M+H]+
Name: Noscapine
Class: NA
Formula: C22H23NO7
Exact mass: 413.1475
SMILES: CN1CCC2=CC3=C(C(=C2C1C4C5=C(C(=C(C=C5)OC)OC)C(=O)O4)OC)OCO3
InChI: InChI=1S/C22H23NO7/c1-23-8-7-11-9-14-20(29-10-28-14)21(27-4)15(11)17(23)18-12-5-6-13(25-2)19(26-3)16(12)22(24)30-18/h5-6,9,17-18H,7-8,10H2,1-4H3
Instrument: Bruker MicrOTOF-Q
Instrument type: LC-ESI-QTOF
Ms type: MS2
Ion mode: POSITIVE
Ionization: ESI
Collision energy: 23.56
Column name: Acquity CSHC18
Retention time: NA
Base peak: 414.1547
Precursor m/z: 414.1547
Precursor type: [M+H]+
m/z	relative intensity
179.0682	17
205.075	18
206.0796	19
218.0826	20
220.0952	22
221.0984	25
292.0647	26
310.0827	27
322.0681	28
323.0903	28
324.1006	28
325.1081	32
334.0801	39
335.0853	40
338.0871	42
350.0742	44
351.0701	60
353.1003	64
354.1039	83
355.1102	86
365.105	91
366.0977	135
381.1209	416
383.1118	999
414.1514	17
415.1615	18
