Mass spectrum: N-ACETYLGLUCOSAMINE; LC-ESI-QFT; MS2; CE: 30eV;  [M+H]+
Name: N-ACETYLGLUCOSAMINE
Class: NA
Formula: C8H15NO6
Exact mass: 221.08994
SMILES: CC(=O)N[C@H]1C(O)O[C@H](CO)[C@@H](O)[C@@H]1O
InChI: InChI=1S/C8H15NO6/c1-3(11)9-5-7(13)6(12)4(2-10)15-8(5)14/h4-8,10,12-14H,2H2,1H3,(H,9,11)/t4-,5-,6-,7-,8?/m1/s1
Instrument: Q-Exactive Orbitrap, Thermo Scientfic; Ultimate 3000 HPLC, Thermo Scientfic
Instrument type: LC-ESI-QFT
Ms type: MS2
Ion mode: POSITIVE
Ionization: ESI
Collision energy: 30eV
Column name: Acquity CSHC18
Retention time: 0.608 min
Base peak: 222.0972
Precursor m/z: 222.0972
Precursor type: [M+H]+
Precursor intensity: 176
m/z	relative intensity
50.4738	1
52.2876	1
56.0502	2
58.0659	11
58.1542	1
59.6647	1
60.0451	17
61.029	4
63.8969	1
66.0646	1
69.0342	2
72.0451	2
73.1893	1
78.9688	1
80.0501	3
80.1328	1
81.0341	7
84.0449	83
84.9397	1
89.0072	2
89.9023	2
90.982	1
92.607	2
96.045	28
97.029	15
98.0605	55
99.0446	4
100.04	1
100.6868	2
105.745	1
109.0289	24
119.0495	10
124.0395	4
126.0552	398
127.0392	26
127.0585	4
134.6338	2
138.0551	999
139.0584	28
144.0657	278
145.0691	8
162.0764	2
163.0393	2
168.0656	229
169.0689	3
178.1228	11
186.0762	143
204.087	91
205.0901	2
220.9682	2
222.1128	24
225.0432	19
