Mass spectrum: (-)-Perillyl alcohol; LC-ESI-QTOF; MS2; CE: 15.00;  [M-H2O+H]+
Name: (-)-Perillyl alcohol
Class: NA
Formula: C10H16O
Exact mass: 152.1201
SMILES: CC(=C)C1CCC(=CC1)CO
InChI: InChI=1S/C10H16O/c1-8(2)10-5-3-9(7-11)4-6-10/h3,10-11H,1,4-7H2,2H3
Instrument: Bruker MicrOTOF-Q
Instrument type: LC-ESI-QTOF
Ms type: MS2
Ion mode: POSITIVE
Ionization: ESI
Collision energy: 15.00
Column name: Acquity CSHC18
Retention time: NA
Base peak: 135.1168
Precursor m/z: 135.1168
Precursor type: [M-H2O+H]+
m/z	relative intensity
105.067	39
107.0836	124
108.0867	43
115.052	61
135.1147	999
136.1202	171
