Mass spectrum: Tafluprost (free acid); ESI-TOF; MS2; CE: 6.0000000;  [M+H]+
Name: Tafluprost (free acid)
Class: NA
Formula: C22H28F2O5
Exact mass: 410.19048
SMILES: OC1CC(O)C(\C=C\C(F)(F)COC2=CC=CC=C2)C1C\C=C/CCCC(O)=O
InChI: InChI=1S/C22H28F2O5/c23-22(24,15-29-16-8-4-3-5-9-16)13-12-18-17(19(25)14-20(18)26)10-6-1-2-7-11-21(27)28/h1,3-6,8-9,12-13,17-20,25-26H,2,7,10-11,14-15H2,(H,27,28)/b6-1-,13-12+
Instrument: waters xevo g2 TOF
Instrument type: ESI-TOF
Ms type: MS2
Ion mode: POSITIVE
Ionization: ESI
Collision energy: 6.0000000
Column name: Acquity CSHC18
Retention time: 3.655 min
Base peak: 411.19848
Precursor m/z: 411.19848
Precursor type: [M+H]+
m/z	relative intensity
107.0494	6
110.0126	9
114.9687	9
131.0511	31
137.0422	14
142.969	13
145.0655	21
149.0753	32
161.0846	35
171.0803	9
175.1012	6
183.0766	14
185.0943	15
187.1021	42
193.063	116
195.1107	32
199.1105	46
205.1111	118
207.0998	19
213.1291	36
215.0733	94
221.0953	9
223.1113	78
224.1154	7
225.1166	217
226.1242	13
235.1117	38
241.122	279
242.1265	36
243.1186	421
245.11	10
247.0945	54
253.1154	22
259.1334	330
260.136	40
261.128	955
262.1321	89
277.1442	358
278.1454	45
279.1364	707
280.1406	65
291.1443	10
297.1502	41
298.1558	44
317.1529	119
335.1634	999
336.1678	200
338.1697	8
352.0754	246
353.1738	302
354.1774	77
355.171	721
356.1732	72
357.1683	69
371.187	88
372.188	22
373.1807	80
375.1774	800
376.1795	125
377.1799	16
385.1167	14
391.192	62
393.1774	164
394.1906	32
401.0841	170
410.168	54
410.6627	22
411.1981	432
412.2002	84
