Mass spectrum: Alpha-Aspartyl-lysine; ESI-TOF; MS2; CE: 6.0000000;  [M+H]+
Name: Alpha-Aspartyl-lysine
Class: NA
Formula: C10H19N3O5
Exact mass: 261.13247
SMILES: NCCCCC(NC(=O)C(N)CC(O)=O)C(O)=O
InChI: InChI=1S/C10H19N3O5/c11-4-2-1-3-7(10(17)18)13-9(16)6(12)5-8(14)15/h6-7H,1-5,11-12H2,(H,13,16)(H,14,15)(H,17,18)
Instrument: waters xevo g2 TOF
Instrument type: ESI-TOF
Ms type: MS2
Ion mode: POSITIVE
Ionization: ESI
Collision energy: 6.0000000
Column name: Acquity CSHC18
Retention time: 0.473 min
Base peak: 262.14047
Precursor m/z: 262.14047
Precursor type: [M+H]+
m/z	relative intensity
84.0818	28
128.0717	25
129.1029	67
130.0091	16
130.087	238
131.0904	18
139.0872	56
140.0907	4
141.0664	3
147.1135	184
148.1153	9
154.9909	55
156.1139	56
157.0975	37
175.119	10
181.0977	30
184.1095	8
185.093	204
186.0954	16
202.1196	73
203.1204	5
209.0926	18
226.1191	20
227.1071	4
244.1304	42
245.1148	45
258.1715	5
262.1406	999
263.1439	117
264.1459	16
523.274	5
576.1825	3
