Mass spectrum: Elaidic acid; LC-ESI-ITFT; MS2; CE: 100;  [M-H]-
Name: Elaidic acid
Class: Lipids and lipid-like molecules; Fatty Acyls; Fatty acids and conjugates
Formula: C18H34O2
Exact mass: 282.25588
SMILES: CCCCCCCC\C=C\CCCCCCCC(O)=O
InChI: InChI=1S/C18H34O2/c1-2-3-4-5-6-7-8-9-10-11-12-13-14-15-16-17-18(19)20/h9-10H,2-8,11-17H2,1H3,(H,19,20)/b10-9+
Instrument: Thermo Scientific Q-Exactive Focus
Instrument type: LC-ESI-ITFT
Ms type: MS2
Ion mode: NEGATIVE
Ionization: ESI
Collision energy: 100
Column name: Acquity CSHC18
Retention time: 2.321 min
Base peak: 281.24860
Precursor m/z: 281.24860
Precursor type: [M-H]-
m/z	relative intensity
78.9578	271
79.9561	173
94.9794	35
94.9918	142
121.114	34
154.9588	999
197.7958	36
214.9261	63
251.1656	33
292.093	34
