Mass spectrum: Acetylglycine; LC-ESI-ITFT; MS2; CE: 10;  [M+H]+
Name: Acetylglycine
Class: Organic acids and derivatives; Carboxylic acids and derivatives; Amino acids, peptides, and analogues
Formula: C4H7NO3
Exact mass: 117.04259
SMILES: CC(=O)NCC(O)=O
InChI: InChI=1S/C4H7NO3/c1-3(6)5-2-4(7)8/h2H2,1H3,(H,5,6)(H,7,8)
Instrument: Thermo Scientific Q-Exactive Focus
Instrument type: LC-ESI-ITFT
Ms type: MS2
Ion mode: POSITIVE
Ionization: ESI
Collision energy: 10
Column name: Acquity CSHC18
Retention time: 0.348 min
Base peak: 118.04987
Precursor m/z: 118.04987
Precursor type: [M+H]+
m/z	relative intensity
72.0449	11
76.0398	999
86.3741	1
87.8835	1
92.5229	2
100.0397	3
118.0502	7
118.0864	4
118.6874	1
136.9735	1
