Mass spectrum: Sphondin; LC-ESI-ITFT; MS2; CE: 45eV;  [M+H]+
Name: Sphondin
Class: coumarin
Formula: C12H8O4
Exact mass: 216.0423
SMILES: COC1=C2C(=C3C(=C1)C=CC(=O)O3)C=CO2
InChI: InChI=1S/C12H8O4/c1-14-9-6-7-2-3-10(13)16-11(7)8-4-5-15-12(8)9/h2-6H,1H3
Instrument: LTQ Orbitrap XL, Thermo Scientfic; Dionex Ultimate 300
Instrument type: LC-ESI-ITFT
Ms type: MS2
Ion mode: POSITIVE
Ionization: ESI
Collision energy: 45eV
Column name: Alltima C18
Retention time: 21.32 min
Base peak: 217.0488
Precursor m/z: 217.0488
Precursor type: [M+H]+
m/z	relative intensity
98.7635	1
132.9861	3
136.8505	24
143.0089	11
155.0549	8
158.014	20
160.9894	161
170.9662	14
184.9245	333
201.9145	999
213.4615	1
