Mass spectrum: Putative_Betavulgaroside X; LC-ESI-QTOF; MS2; CE: 20-40eV;  [M+NH4]+
Name: Putative_Betavulgaroside X
Class: Triterpene saponins
Formula: C46H70O18
Exact mass: 910.4562
SMILES: C=C1CCC2(CCC3(C)C(=CCC4C5(C)CCC(C(C)(C)C5CCC43C)OC6C(C(C(C(C(=O)O)O6)O)OC7C(C(C(CO7)O)O)O)O)C2C1)C(=O)OC8C(C(C(C(CO)O8)O)O)O
InChI: InChI=1S/C46H70O18/c1-20-9-14-46(41(58)64-39-32(53)30(51)29(50)24(18-47)60-39)16-15-44(5)21(22(46)17-20)7-8-26-43(4)12-11-27(42(2,3)25(43)10-13-45(26,44)6)61-40-34(55)35(33(54)36(63-40)37(56)57)62-38-31(52)28(49)23(48)19-59-38/h7,22-36,38-40,47-55H,1,8-19H2,2-6H3,(H,56,57)
Instrument: Impact II, Bruker; Dionex 3000, Thermo Scientific
Instrument type: LC-ESI-QTOF
Ms type: MS2
Ion mode: POSITIVE
Ionization: ESI
Collision energy: 20-40eV
Column name: Acquity CSHC18
Retention time: 12.486 min
Base peak: 928.4886
Precursor m/z: 928.4886
Precursor type: [M+NH4]+
Precursor intensity: 154862.4
m/z	relative intensity
133.0749	74
145.075	90
177.1444	103
201.1458	118
203.1615	120
205.1592	214
207.1922	293
215.1619	334
217.0973	413
423.4436	629
423.9612	999
