Mass spectrum: 6-(Methylsulfinyl)hexyl glucosinolate; LC-ESI-QTOF; MS2; CE: 50eV;  [M-H]-
Name: 6-(Methylsulfinyl)hexyl glucosinolate
Class: aliphatic glucosinolate
Formula: C14H27NO10S3
Exact mass: 465.0797
SMILES: CS(=O)CCCCCCC(=NOS(=O)(=O)O)SC1C(C(C(C(O1)CO)O)O)O
InChI: InChI=1S/C14H27NO10S3/c1-27(20)7-5-3-2-4-6-10(15-25-28(21,22)23)26-14-13(19)12(18)11(17)9(8-16)24-14/h9,11-14,16-19H,2-8H2,1H3,(H,21,22,23)
Instrument: TIMS-TOF Pro, Bruker Daltonik; Elute UHPLC System, Bruker Daltonik
Instrument type: LC-ESI-QTOF
Ms type: MS2
Ion mode: NEGATIVE
Ionization: ESI
Collision energy: 50eV
Column name: Acquity CSHC18
Retention time: 4.209 min
Base peak: 464.0635
Precursor m/z: 464.0635
Precursor type: [M-H]-
Precursor intensity: 697.33
m/z	relative intensity
74.9879	135
95.9506	538
464.0635	999
