Mass spectrum: 4-aminobenzoic acid; LC-ESI-QTOF; MS2; CE: -10, -35, -60V;  [M-H]-
Name: 4-aminobenzoic acid
Class: NA
Formula: C7H7NO2
Exact mass: 137.0477
SMILES: C1=CC(=CC=C1C(=O)O)N
InChI: InChI=1S/C7H7NO2/c8-6-3-1-5(2-4-6)7(9)10/h1-4H,8H2,(H,9,10)
Instrument: TripleToF 5600; Sciex
Instrument type: LC-ESI-QTOF
Ms type: MS2
Ion mode: NEGATIVE
Ionization: ESI
Collision energy: -10, -35, -60V
Column name: Acquity CSHC18
Retention time: 9.595 min
Base peak: 136.0412
Precursor m/z: 136.0412
Precursor type: [M-H]-
Precursor intensity: 210685.6
m/z	relative intensity
65.0397	55
91.7637	21
92.0506	999
93.057	133
136.0323	753
136.0405	755
