Mass spectrum: Nonadecanoic acid; LC-ESI-ITFT; MS2; CE: 20;  [M-H]-
Name: Nonadecanoic acid
Class: Lipids and lipid-like molecules; Fatty Acyls; Fatty acids and conjugates
Formula: C19H38O2
Exact mass: 298.28718
SMILES: CCCCCCCCCCCCCCCCCCC(O)=O
InChI: InChI=1S/C19H38O2/c1-2-3-4-5-6-7-8-9-10-11-12-13-14-15-16-17-18-19(20)21/h2-18H2,1H3,(H,20,21)
Instrument: Thermo Scientific Q-Exactive Focus
Instrument type: LC-ESI-ITFT
Ms type: MS2
Ion mode: NEGATIVE
Ionization: ESI
Collision energy: 20
Column name: Acquity CSHC18
Retention time: 0.642 min
Base peak: 297.27991
Precursor m/z: 297.27991
Precursor type: [M-H]-
m/z	relative intensity
132.9801	42
149.0085	24
160.9751	82
183.0114	68
228.9657	20
232.9243	24
297.0468	18
297.1526	999
297.2796	141
299.0262	25
