Mass spectrum: C18-04:0 PC; ESI-TOF; MS2; CE: 0.6458333;  [M+H]+
Name: C18-04:0 PC
Class: NA
Formula: C30H62NO7P
Exact mass: 579.42639
SMILES: [H]C([H])([H])C([H])([H])C([H])([H])C(=O)OC([H])(C([H])([H])OC([H])([H])C([H])([H])C([H])([H])C([H])([H])C([H])([H])C([H])([H])C([H])([H])C([H])([H])C([H])([H])C([H])([H])C([H])([H])C([H])([H])C([H])([H])C([H])([H])C([H])([H])C([H])([H])C([H])([H])C([H])([H])[H])C([H])([H])OP(=O)([O-])OC([H])([H])C([H])([H])[N+](C([H])([H])[H])(C([H])([H])[H])C([H])([H])[H]
InChI: InChI=1S/C30H62NO7P/c1-6-8-9-10-11-12-13-14-15-16-17-18-19-20-21-22-25-35-27-29(38-30(32)23-7-2)28-37-39(33,34)36-26-24-31(3,4)5/h29H,6-28H2,1-5H3
Instrument: waters xevo g2 TOF
Instrument type: ESI-TOF
Ms type: MS2
Ion mode: POSITIVE
Ionization: ESI
Collision energy: 0.6458333
Column name: Acquity CSHC18
Retention time: 9.324 min
Base peak: 580.43439
Precursor m/z: 580.43439
Precursor type: [M+H]+
m/z	relative intensity
71.086	9
81.0016	1
85.1022	12
86.0969	45
87.1004	1
104.1076	15
125.0002	12
127.0071	46
145.0174	1
146.9819	20
162.948	6
184.0737	999
185.0775	62
186.0784	9
310.073	2
323.2271	3
326.0453	1
328.0463	2
397.3672	57
398.3711	15
399.3738	1
401.2288	3
419.3508	7
433.3085	1
492.3819	135
493.3844	40
494.3886	3
510.3945	1
543.3417	72
544.3458	22
545.3491	3
569.8698	3
570.3689	2
580.4346	166
581.4376	58
