Mass spectrum: DL-Dopa; ESI-TOF; MS2; CE: 0.6458333;  [M+H]+
Name: DL-Dopa
Class: NA
Formula: C9H11NO4
Exact mass: 197.06881
SMILES: NC(CC1=CC=C(O)C(O)=C1)C(O)=O
InChI: InChI=1S/C9H11NO4/c10-6(9(13)14)3-5-1-2-7(11)8(12)4-5/h1-2,4,6,11-12H,3,10H2,(H,13,14)
Instrument: waters xevo g2 TOF
Instrument type: ESI-TOF
Ms type: MS2
Ion mode: POSITIVE
Ionization: ESI
Collision energy: 0.6458333
Column name: Acquity CSHC18
Retention time: 0.581 min
Base peak: 198.07681
Precursor m/z: 198.07681
Precursor type: [M+H]+
m/z	relative intensity
65.0396	115
66.0433	5
77.0396	210
78.0431	14
79.0549	237
80.0566	2
81.0341	31
89.0395	123
90.0436	6
91.0551	151
93.0341	800
94.0376	57
95.05	13
102.0919	4
105.0339	29
106.0654	255
107.0496	272
108.0526	113
109.029	10
110.0347	12
111.0448	102
112.0476	36
116.0498	19
117.0342	82
119.0499	44
120.0468	10
122.0611	3
123.0446	250
124.0485	5
125.0599	6
133.0289	23
134.0604	269
135.0445	999
136.0486	105
139.0395	890
140.043	75
148.0397	38
150.0552	12
151.0701	2
152.0711	813
153.0742	79
154.0761	4
163.0395	120
164.0427	10
176.9636	51
177.972	18
181.0497	12
198.0767	102
199.0794	6
