Mass spectrum: Flavone; ESI-TOF; MS2; CE: 0.6458333;  [M+H]+
Name: Flavone
Class: NA
Formula: C15H10O2
Exact mass: 222.06808
SMILES: O=C1C=C(OC2=CC=CC=C12)C1=CC=CC=C1
InChI: InChI=1S/C15H10O2/c16-13-10-15(11-6-2-1-3-7-11)17-14-9-5-4-8-12(13)14/h1-10H
Instrument: waters xevo g2 TOF
Instrument type: ESI-TOF
Ms type: MS2
Ion mode: POSITIVE
Ionization: ESI
Collision energy: 0.6458333
Column name: Acquity CSHC18
Retention time: 3.690 min
Base peak: 223.07608
Precursor m/z: 223.07608
Precursor type: [M+H]+
m/z	relative intensity
65.04	102
66.043	6
69.0341	49
77.1251	347
78.0432	78
89.0393	1
93.0345	599
94.038	44
96.0541	1
101.0399	9
102.0059	6
103.142	297
104.0585	109
105.0345	230
106.038	18
110.9755	1
115.0549	3
117.0342	2
118.0423	8
120.0218	2
121.1227	999
123.0408	26
128.062	2
129.1089	594
130.2022	65
131.0282	9
139.0263	1
141.0706	9
147.066	22
148.0478	1
151.055	51
152.0628	469
153.054	123
154.0735	13
155.0859	12
164.9951	204
166.0773	221
167.0713	994
169.0897	8
176.0626	93
177.0823	321
178.1566	878
179.0748	337
180.1313	17
181.0656	75
182.0686	9
184.9998	3
194.0732	75
195.0812	4
196.0847	11
199.0145	17
199.514	2
204.0453	1
205.0653	18
206.0699	3
208.0183	2
221.1997	5
224.4877	779
228.1289	2
228.9604	43
230.0879	5
234.0614	13
234.561	3
235.2603	19
236.0618	5
236.5636	1
242.3104	356
243.053	72
243.5537	6
244.0496	17
245.2122	69
246.1225	19
247.0628	2
249.0754	11
249.5365	30
250.2509	154
251.0541	219
251.5514	20
252.0414	16
252.5368	5
258.0633	17
258.5644	6
259.0418	13
259.5442	4
260.0585	5
261.078	3
264.1332	1
277.0689	36
278.0025	27
279.1032	26
280.0043	19
280.9913	16
282.105	3
283.0232	2
287.0473	1
289.1044	1
291.0515	4
292.9923	13
293.9979	35
295.005	32
296.0084	3
297.0053	4
298.0076	1
304.9905	4
305.9949	1
307.0284	38
308.0232	31
312.9733	1
317.9973	2
321.9974	3
323.0007	25
324.0558	12
325.0042	6
341.9948	3
345.039	44
345.8926	21
346.889	2
350.0251	2
353.0845	377
353.543	5
354.0535	72
354.5884	13
355.0564	20
355.5914	16
356.0926	13
356.5945	12
358.5691	1
359.0681	1
360.0718	10
360.923	40
361.5718	32
362.0717	101
362.8678	16
363.5703	7
364.0364	4
364.5716	1
369.091	3
371.735	1
376.5795	1
403.0423	1
403.5458	1
405.1413	1
464.3476	1
497.0756	1
499.0632	11
500.0682	2
501.0621	85
502.0673	13
503.0606	41
504.0637	15
505.0919	1
515.0578	4
516.0642	2
529.0965	10
530.0994	1
546.0869	17
547.0712	4
601.0276	1
615.0438	3
