Mass spectrum: dihydrokaempferol; LC-ESI-QTOF; MS2; CE: 20-40eV;  [M+H]+
Name: dihydrokaempferol
Class: flavonoid
Formula: C15H12O6
Exact mass: 288.0634
SMILES: C=1C=C(C=CC1C2(C(C(C3=C(C=C(C=C3O2)O)O)=O)(O)[H])[H])O
InChI: InChI=1S/C15H12O6/c16-8-3-1-7(2-4-8)15-14(20)13(19)12-10(18)5-9(17)6-11(12)21-15/h1-6,14-18,20H
Instrument: Impact II, Bruker; Dionex 3000, Thermo Scientific
Instrument type: LC-ESI-QTOF
Ms type: MS2
Ion mode: POSITIVE
Ionization: ESI
Collision energy: 20-40eV
Column name: Acquity CSHC18
Retention time: 5.949 min
Base peak: 289.0703
Precursor m/z: 289.0703
Precursor type: [M+H]+
Precursor intensity: 20233.13
m/z	relative intensity
119.0667	746
168.0478	961
187.055	999
