Mass spectrum: 12-hydroxyjasmonic acid; LC-ESI-QTOF; MS2; CE: -10, -35, -60V;  [M-H]-
Name: 12-hydroxyjasmonic acid
Class: NA
Formula: C12H18O4
Exact mass: 226.1205
SMILES: C1CC(=O)C(C1CC(=O)O)CC=CCCO
InChI: InChI=1S/C12H18O4/c13-7-3-1-2-4-10-9(8-12(15)16)5-6-11(10)14/h1-2,9-10,13H,3-8H2,(H,15,16)
Instrument: TripleToF 5600; Sciex
Instrument type: LC-ESI-QTOF
Ms type: MS2
Ion mode: NEGATIVE
Ionization: ESI
Collision energy: -10, -35, -60V
Column name: Acquity CSHC18
Retention time: 9.417 min
Base peak: 225.1143
Precursor m/z: 225.1143
Precursor type: [M-H]-
Precursor intensity: 213601.5
m/z	relative intensity
97.0638	64
147.0831	102
225.1162	999
