Mass spectrum: zymostenol; ESI-TOF; MS2; CE: 6.0000000;  [M+H]+
Name: zymostenol
Class: NA
Formula: C27H46O
Exact mass: 386.35487
SMILES: [H]OC1([H])(C([H])([H])C([H])([H])C2(C3=C(C([H])([H])C([H])([H])C2([H])(C1([H])([H])))C4([H])(C([H])([H])C([H])([H])C([H])(C([H])(C([H])([H])[H])C([H])([H])C([H])([H])C([H])([H])C([H])(C([H])([H])[H])C([H])([H])[H])C4(C([H])([H])[H])(C([H])([H])C3([H])([H]))))(C([H])([H])[H]))
InChI: InChI=1S/C27H46O/c1-18(2)7-6-8-19(3)23-11-12-24-22-10-9-20-17-21(28)13-15-26(20,4)25(22)14-16-27(23,24)5/h18-21,23-24,28H,6-17H2,1-5H3
Instrument: waters xevo g2 TOF
Instrument type: ESI-TOF
Ms type: MS2
Ion mode: POSITIVE
Ionization: ESI
Collision energy: 6.0000000
Column name: Acquity CSHC18
Retention time: 10.730 min
Base peak: 387.36287
Precursor m/z: 387.36287
Precursor type: [M+H]+
m/z	relative intensity
215.1801	15
220.1779	17
257.2261	6
369.3512	999
369.3537	23
370.3557	314
371.3569	29
386.355	307
387.3582	48
409.3448	55
447.3614	29
620.025	29
620.5274	32
792.6933	49
793.1944	56
793.6944	40
795.704	120
796.7039	63
797.7072	15
808.5098	32
823.4893	26
829.5778	17
986.3704	28
986.875	16
