Mass spectrum: Pipecolic acid; ESI-TOF; MS2; CE: 6.0000000;  [M+H]+
Name: Pipecolic acid
Class: NA
Formula: C6H11NO2
Exact mass: 129.07898
SMILES: OC(=O)C1CCCCN1
InChI: InChI=1S/C6H11NO2/c8-6(9)5-3-1-2-4-7-5/h5,7H,1-4H2,(H,8,9)
Instrument: waters xevo g2 TOF
Instrument type: ESI-TOF
Ms type: MS2
Ion mode: POSITIVE
Ionization: ESI
Collision energy: 6.0000000
Column name: Acquity CSHC18
Retention time: 0.572 min
Base peak: 130.08698
Precursor m/z: 130.08698
Precursor type: [M+H]+
m/z	relative intensity
84.0813	34
96.9614	3
113.9641	5
130.0085	3
130.0866	999
131.0895	79
132.0918	1
152.0683	13
281.1474	2
410.2265	5
441.156	2
442.1625	1
555.2686	2
570.2347	6
571.2373	2
592.215	1
684.3469	1
