Mass spectrum: 15(R),19(R)-hydroxy Prostaglandin F2-alpha; ESI-TOF; MS2; CE: 6.0000000;  [M+H]+
Name: 15(R),19(R)-hydroxy Prostaglandin F2-alpha
Class: NA
Formula: C20H34O6
Exact mass: 370.23554
SMILES: O[C@@H]1[C@H](C/C=C\CCCC(O)=O)[C@@H](/C=C/[C@H](O)CCC[C@H](O)C)[C@H](O)C1
InChI: InChI=1S/C20H34O6/c1-14(21)7-6-8-15(22)11-12-17-16(18(23)13-19(17)24)9-4-2-3-5-10-20(25)26/h2,4,11-12,14-19,21-24H,3,5-10,13H2,1H3,(H,25,26)/b4-2-,12-11+/t14-,15-,16-,17-,18+,19-/m1/s1
Instrument: waters xevo g2 TOF
Instrument type: ESI-TOF
Ms type: MS2
Ion mode: POSITIVE
Ionization: ESI
Collision energy: 6.0000000
Column name: Acquity CSHC18
Retention time: 2.567 min
Base peak: 371.24354
Precursor m/z: 371.24354
Precursor type: [M+H]+
m/z	relative intensity
81.0701	1
91.0549	1
93.0705	1
99.0818	7
105.0697	1
109.065	1
119.0869	1
121.102	1
128.0214	16
129.0701	1
131.0871	1
133.1012	1
139.9928	1
141.0696	1
143.0256	11
144.0898	1
145.1022	1
147.1178	1
155.0866	1
157.1018	1
159.1167	1
167.0846	5
169.1024	1
171.1173	1
172.1199	1
173.0976	1
181.1011	1
185.1326	1
187.1122	14
197.1316	9
201.127	1
203.1077	18
215.1436	1
217.1207	1
221.1291	5
223.1438	4
236.0477	1
237.1627	1
239.161	9
241.1611	4
253.1956	1
255.174	69
257.1913	9
259.1699	1
273.1857	193
274.1843	14
281.1899	187
282.1927	35
289.216	10
291.1955	44
299.2005	791
300.2047	168
316.1112	1
317.2111	999
318.215	172
319.2176	24
329.1421	1
334.1224	117
335.1732	161
336.2255	59
345.1166	1
347.1526	1
348.1544	1
353.232	206
354.2349	36
362.1171	42
363.1247	44
371.1348	1
373.1674	1
