Mass spectrum: CARNOSINE; LC-ESI-QFT; MS2; CE: 30eV;  [M+H]+
Name: CARNOSINE
Class: NA
Formula: C9H14N4O3
Exact mass: 226.10659
SMILES: NCCC(=O)N[C@@H](CC1=CN=CN1)C(O)=O
InChI: InChI=1S/C9H14N4O3/c10-2-1-8(14)13-7(9(15)16)3-6-4-11-5-12-6/h4-5,7H,1-3,10H2,(H,11,12)(H,13,14)(H,15,16)/t7-/m0/s1
Instrument: Q-Exactive Orbitrap, Thermo Scientfic; Ultimate 3000 HPLC, Thermo Scientfic
Instrument type: LC-ESI-QFT
Ms type: MS2
Ion mode: POSITIVE
Ionization: ESI
Collision energy: 30eV
Column name: Acquity CSHC18
Retention time: 0.560 min
Base peak: 227.1139
Precursor m/z: 227.1139
Precursor type: [M+H]+
Precursor intensity: 117
m/z	relative intensity
52.8082	2
54.488	2
55.0185	3
58.1578	2
60.3501	3
68.0501	3
72.0375	3
81.0455	2
82.0529	12
83.0611	16
86.6698	2
90.9772	40
93.0452	4
95.0609	77
108.029	3
110.8766	3
111.0687	6
111.0751	33
112.0874	15
122.0717	246
128.8579	2
130.3266	3
135.7603	2
136.0871	3
138.0665	70
146.0715	14
152.0821	178
153.0852	3
154.0614	6
157.0742	5
157.0804	47
164.0821	416
165.0856	6
166.0979	12
180.0771	215
181.0807	12
181.1086	531
182.0929	14
182.1053	3
182.1124	4
192.0771	116
193.0802	7
198.0877	86
209.1039	93
210.0877	999
211.0915	41
227.1142	278
228.1176	17
242.4472	3
