Mass spectrum: ANSERINE; LC-ESI-QFT; MS2; CE: 30eV;  [M-H]-
Name: ANSERINE
Class: NA
Formula: C10H16N4O3
Exact mass: 240.12224
SMILES: CN1C=NC=C1C[C@H](NC(=O)CCN)C(O)=O
InChI: InChI=1S/C10H16N4O3/c1-14-6-12-5-7(14)4-8(10(16)17)13-9(15)2-3-11/h5-6,8H,2-4,11H2,1H3,(H,13,15)(H,16,17)/t8-/m0/s1
Instrument: Q-Exactive Orbitrap, Thermo Scientfic; Ultimate 3000 HPLC, Thermo Scientfic
Instrument type: LC-ESI-QFT
Ms type: MS2
Ion mode: NEGATIVE
Ionization: ESI
Collision energy: 30eV
Column name: Acquity CSHC18
Retention time: 0.580 min
Base peak: 239.1150
Precursor m/z: 239.1150
Precursor type: [M-H]-
Precursor intensity: 159
m/z	relative intensity
52.8207	2
54.7676	1
58.0283	250
61.9869	11
63.8997	1
70.0283	12
75.1697	2
87.0523	3
87.0549	106
87.0707	2
99.0549	3
103.9186	5
130.4333	2
134.3167	2
135.5675	2
137.0704	3
139.9834	2
147.9167	3
149.9065	5
151.05	37
151.9221	62
154.0608	19
166.0974	319
167.1009	17
167.9172	43
168.0767	999
169.08	35
178.0976	12
181.8963	5
183.9124	29
187.6896	2
191.9713	2
195.1243	57
239.1145	282
240.1182	15
