Mass spectrum: CAY10509; ESI-TOF; MS2; CE: 6.0000000;  [M+H]+
Name: CAY10509
Class: NA
Formula: C23H35FO5S
Exact mass: 442.21892
SMILES: O[C@@H]1C[C@H](O)[C@H](CCCCCCC(OC)=O)[C@H]1CC[C@@H](O)CSC2=C(F)C=CC=C2
InChI: InChI=1S/C23H35FO5S/c1-29-23(28)11-5-3-2-4-8-17-18(21(27)14-20(17)26)13-12-16(25)15-30-22-10-7-6-9-19(22)24/h6-7,9-10,16-18,20-21,25-27H,2-5,8,11-15H2,1H3/t16-,17-,18-,20+,21-/m1/s1
Instrument: waters xevo g2 TOF
Instrument type: ESI-TOF
Ms type: MS2
Ion mode: POSITIVE
Ionization: ESI
Collision energy: 6.0000000
Column name: Acquity CSHC18
Retention time: 3.937 min
Base peak: 443.22692
Precursor m/z: 443.22692
Precursor type: [M+H]+
m/z	relative intensity
126.9733	6
131.0865	5
145.1028	14
167.0326	4
177.0856	1
211.149	26
212.1513	3
214.0734	2
223.0807	20
231.065	7
232.0857	126
232.5873	49
237.1825	3
240.0587	4
241.0909	23
247.1699	117
248.1741	22
261.1856	632
262.188	114
263.191	9
265.178	3
279.1965	946
280.2001	173
281.2017	16
304.3005	2
332.3287	5
333.3334	1
357.168	16
375.1851	79
376.1843	20
389.1936	273
390.1972	62
391.1988	17
399.1754	17
403.1071	1
407.2067	999
408.2072	277
409.2071	76
410.209	12
425.2161	136
426.2211	31
427.2178	9
428.2162	2
437.1976	1
443.227	52
444.225	8
