Mass spectrum: MELIBIOSE; LC-ESI-QTOF; MS2; CE: 20;  [M-H]-
Name: MELIBIOSE
Class: NA
Formula: C12H22O11
Exact mass: 342.11621
SMILES: OC[C@H]1O[C@H](OC[C@H]2OC(O)[C@H](O)[C@@H](O)[C@@H]2O)[C@H](O)[C@@H](O)[C@H]1O
InChI: InChI=1S/C12H22O11/c13-1-3-5(14)8(17)10(19)12(23-3)21-2-4-6(15)7(16)9(18)11(20)22-4/h3-20H,1-2H2/t3-,4-,5+,6-,7+,8+,9-,10-,11?,12+/m1/s1
Instrument: Agilent 6530Â Q-TOF LC/MS
Instrument type: LC-ESI-QTOF
Ms type: MS2
Ion mode: NEGATIVE
Ionization: ESI
Collision energy: 20
Column name: NA
Retention time: 0.200 min
Base peak: 341.10710
Precursor m/z: 341.10710
Precursor type: [M-H]-
Precursor intensity: 150
m/z	relative intensity
55.018	120
57.0375	122
59.0339	145
71.0259	156
73.031	160
85.0304	163
89.0453	177
101.0393	302
113.0305	343
119.0342	502
161.0393	547
179.0508	849
221.081	999
