Mass spectrum: Piriprost (potassium salt); ESI-TOF; MS2; CE: 0.6458333;  [M+H]+
Name: Piriprost (potassium salt)
Class: NA
Formula: C26H35NO4
Exact mass: 425.25661
SMILES: CCCCC[C@H](O)/C=C/[C@H]1[C@H](O)CC2=C1C=C(CCCCC(O)=O)N2C3=CC=CC=C3
InChI: InChI=1S/C26H35NO4/c1-2-3-5-13-21(28)15-16-22-23-17-20(12-8-9-14-26(30)31)27(24(23)18-25(22)29)19-10-6-4-7-11-19/h4,6-7,10-11,15-17,21-22,25,28-29H,2-3,5,8-9,12-14,18H2,1H3,(H,30,31)/b16-15+/t21-,22+,25+/m0/s1
Instrument: waters xevo g2 TOF
Instrument type: ESI-TOF
Ms type: MS2
Ion mode: POSITIVE
Ionization: ESI
Collision energy: 0.6458333
Column name: Acquity CSHC18
Retention time: 4.282 min
Base peak: 426.26461
Precursor m/z: 426.26461
Precursor type: [M+H]+
m/z	relative intensity
71.0845	7
81.0712	38
123.1202	11
130.0668	6
170.0963	20
182.0956	17
186.0934	13
194.0972	16
206.0978	22
208.1126	6
210.0898	25
211.1007	25
220.1132	32
232.1101	17
238.1235	140
239.1238	15
240.1416	11
246.1291	14
250.1223	8
252.1176	51
253.1048	6
254.1183	177
256.1342	945
257.133	177
258.1312	20
264.1354	15
266.1131	9
268.134	20
270.1485	130
271.1586	21
276.1367	64
278.1525	9
280.1349	13
282.1487	42
284.1286	20
288.1374	18
292.1324	22
294.1483	161
295.1488	38
296.1279	684
297.1323	177
306.1485	57
308.1645	102
309.1669	22
310.1445	163
320.0932	8
324.1565	23
328.1468	6
330.1442	22
336.1596	87
337.1657	15
346.2142	39
360.2319	30
362.246	55
364.2272	105
365.2272	30
372.2317	41
376.2267	32
378.2442	146
379.2473	26
380.259	818
381.2621	183
382.2328	11
390.2429	254
391.2458	57
392.2467	11
394.2351	6
396.2479	10
404.2238	28
405.2237	8
406.237	20
407.2417	30
408.2541	999
409.2569	280
412.2249	118
413.2273	26
422.2328	38
424.2485	58
426.2641	20
