Mass spectrum: beta-Alanine; LC-ESI-ITFT; MS2; CE: 100;  [M+H]+
Name: beta-Alanine
Class: Organic acids and derivatives; Carboxylic acids and derivatives; Amino acids, peptides, and analogues
Formula: C3H7NO2
Exact mass: 89.04768
SMILES: NCCC(O)=O
InChI: InChI=1S/C3H7NO2/c4-2-1-3(5)6/h1-2,4H2,(H,5,6)
Instrument: Thermo Scientific Q-Exactive Focus
Instrument type: LC-ESI-ITFT
Ms type: MS2
Ion mode: POSITIVE
Ionization: ESI
Collision energy: 100
Column name: Acquity CSHC18
Retention time: 2.087 min
Base peak: 90.05496
Precursor m/z: 90.05496
Precursor type: [M+H]+
m/z	relative intensity
61.7138	999
80.7045	945
80.8926	917
90.5774	879
92.4543	869
95.8094	930
100.6842	840
102.4001	854
106.2708	938
108.976	872
