Mass spectrum: lactucin; LC-ESI-ITFT; MS2; CE: 0.3;  [M+H]+
Name: lactucin
Class: sesquiterpene lactones
Formula: C15H16O5
Exact mass: 276.0998
SMILES: CC1=C2C(C3C(C(C1)O)C(=C)C(=O)O3)C(=CC2=O)CO
InChI: InChI=1S/C15H16O5/c1-6-3-9(17)12-7(2)15(19)20-14(12)13-8(5-16)4-10(18)11(6)13/h4,9,12-14,16-17H,2-3,5H2,1H3
Instrument: LTQ-Orbitrap XL hybrid mass spectrometer (Thermo Scientific)
Instrument type: LC-ESI-ITFT
Ms type: MS2
Ion mode: POSITIVE
Ionization: ESI
Collision energy: 0.3
Column name: Acquity CSHC18
Retention time: 6.574 min
Base peak: 277.1081
Precursor m/z: 277.1081
Precursor type: [M+H]+
Precursor intensity: 45449300
m/z	relative intensity
65.3671	7
68.0817	8
69.5451	7
71.8441	15
71.8455	13
73.4662	7
77.5961	6
86.166	7
91.2912	7
125.1511	6
131.0857	12
143.0859	41
147.0809	19
148.6269	5
151.0756	12
155.0861	10
157.0652	35
157.1016	45
159.081	33
167.0861	78
169.1019	38
171.081	37
175.076	113
179.0861	12
183.0812	45
185.0968	213
187.076	13
187.1125	8
193.0866	9
194.5157	5
194.5243	5
194.5309	4
194.5569	5
195.0812	131
196.1214	22
197.0969	54
199.0761	20
203.1073	16
211.0763	75
213.0839	11
213.0859	8
213.0919	839
215.1076	12
217.0506	18
223.0763	98
229.0869	63
231.1026	131
241.0808	9
241.0871	999
247.0976	56
259.0978	783
