Mass spectrum: Trimethylsolanocapsin; APCI-ITFT; MS2; CE: CID 35;  [M-H]-
Name: Trimethylsolanocapsin
Class: NA
Formula: C30H52N2O2
Exact mass: 472.40288
SMILES: C[C@@]12[C@](CC[C@]3([H])[C@]2([H])CC[C@@]4(C)[C@@]3([H])C[C@@]([H])(O[C@](C[C@@H](C)CN5C)(OC)[C@@]5([H])[C@H]6C)[C@@]46[H])([H])C[C@@H](NC)CC1
InChI: InChI=1S/C30H52N2O2/c1-18-16-30(33-7)27(32(6)17-18)19(2)26-25(34-30)15-24-22-9-8-20-14-21(31-5)10-12-28(20,3)23(22)11-13-29(24,26)4/h18-27,31H,8-17H2,1-7H3/t18-,19+,20+,21+,22-,23+,24+,25-,26+,27-,28+,29+,30+/m1/s1
Instrument: Orbitrap Elite
Instrument type: APCI-ITFT
Ms type: MS2
Ion mode: NEGATIVE
Ionization: APCI
Collision energy: CID 35
Column name: Acquity CSHC18
Retention time: 0.126 min
Base peak: 471.39540
Precursor m/z: 471.39540
Precursor type: [M-H]-
Precursor intensity: 21849060
m/z	relative intensity
300.2335	19
301.2372	4
302.251	32
303.2504	6
316.2647	51
317.267	6
318.2806	3
326.2482	3
328.2637	17
340.2655	2
340.3031	2
342.2774	361
343.2813	43
344.2958	151
345.2985	19
346.3105	14
347.3162	2
356.2968	5
373.3215	3
375.3353	17
388.3222	2
410.342	4
428.358	3
429.3457	4
433.3618	5
435.3754	5
437.3556	45
438.36	13
442.3357	2
451.3697	37
452.3217	6
453.3864	455
454.3883	77
455.3664	999
456.3663	227
457.3804	6
470.3493	6
