Mass spectrum: Isoboldine; ESI-QTOF; MS2; CE: -10, -35, -60;  [M-H]-
Name: Isoboldine
Class: Benzylisoquinoline (subclass: Aporphine) alkaloid
Formula: C19H21NO4
Exact mass: 327.1471
SMILES: CN1CCC2=CC(=C(C3=C2C1CC4=CC(=C(C=C43)OC)O)O)OC
InChI: InChI=1S/C19H21NO4/c1-20-5-4-10-8-16(24-3)19(22)18-12-9-15(23-2)14(21)7-11(12)6-13(20)17(10)18/h7-9,13,21-22H,4-6H2,1-3H3
Instrument: AB Sciex TripleToF 5500
Instrument type: ESI-QTOF
Ms type: MS2
Ion mode: NEGATIVE
Ionization: ESI
Collision energy: -10, -35, -60
Column name: Acquity CSHC18
Retention time: 4.564 min
Base peak: 326.1372
Precursor m/z: 326.1372
Precursor type: [M-H]-
Precursor intensity: 70680.44
m/z	relative intensity
155.0472	48
167.0439	132
182.0365	74
183.0511	140
195.0385	89
196.0551	215
197.0604	175
222.0491	64
223.043	503
224.0498	999
225.044	402
225.0567	402
226.0658	65
238.0424	22
239.0715	212
240.0788	63
252.0418	107
253.0491	208
254.0516	62
266.0773	31
267.0683	393
267.0868	393
268.0728	261
269.0768	45
278.0443	72
279.0527	55
280.0605	77
281.0702	69
294.0871	34
296.0949	272
297.0916	66
309.0988	57
310.1172	164
311.1173	992
312.1216	255
324.1207	134
325.1329	250
326.1417	410
327.1443	138
328.1459	23
