Mass spectrum: Helicin; LC-ESI-QTOF; MS2; CE: 17.18;  [M+HCOOH-H]-
Name: Helicin
Class: NA
Formula: C13H16O7
Exact mass: 284.0896
SMILES: C1=CC=C(C(=C1)C=O)OC2C(C(C(C(O2)CO)O)O)O
InChI: InChI=1S/C13H16O7/c14-5-7-3-1-2-4-8(7)19-13-12(18)11(17)10(16)9(6-15)20-13/h1-5,9-13,15-18H,6H2
Instrument: Bruker MicrOTOF-Q
Instrument type: LC-ESI-QTOF
Ms type: MS2
Ion mode: NEGATIVE
Ionization: ESI
Collision energy: 17.18
Column name: Acquity CSHC18
Retention time: NA
Base peak: 329.0878
Precursor m/z: 329.0878
Precursor type: [M+HCOOH-H]-
m/z	relative intensity
46.3538	19
47.9077	27
50.6759	28
53.7276	27
54.0417	17
54.6781	19
74.7786	24
79.3765	34
81.5144	37
83.478	20
85.3836	23
90.7048	26
90.7597	22
91.092	27
93.0297	27
97.6597	32
101.2453	37
103.1393	26
115.0296	38
115.5818	16
120.6218	27
120.9251	29
121.0317	999
121.9836	16
122.0311	73
123.0279	33
161.557	17
237.7365	20
260.3794	22
268.6457	16
291.87	28
399.1341	22
427.9774	19
441.4049	32
454.8979	20
456.3534	21
477.5811	22
550.4556	32
576.3748	33
578.3938	19
614.2238	25
754.2869	22
813.773	27
832.3525	16
852.5659	21
894.7459	16
