Mass spectrum: Mannitol; ESI-TOF; MS2; CE: 0.6458333;  [M+H]+
Name: Mannitol
Class: NA
Formula: C6H14O6
Exact mass: 182.07904
SMILES: OCC(O)C(O)C(O)C(O)CO
InChI: InChI=1S/C6H14O6/c7-1-3(9)5(11)6(12)4(10)2-8/h3-12H,1-2H2
Instrument: waters xevo g2 TOF
Instrument type: ESI-TOF
Ms type: MS2
Ion mode: POSITIVE
Ionization: ESI
Collision energy: 0.6458333
Column name: Acquity CSHC18
Retention time: 0.558 min
Base peak: 183.08704
Precursor m/z: 183.08704
Precursor type: [M+H]+
m/z	relative intensity
69.0342	254
73.029	47
83.0498	193
85.029	160
87.0103	30
96.9614	336
97.9691	561
99.01	242
102.0158	114
103.9591	14
111.0328	248
112.991	74
113.9643	237
114.9716	538
117.0549	2
118.943	16
124.9564	94
125.9772	26
126.9483	111
129.0528	98
131.0008	42
132.0263	106
132.9586	110
139.5193	2
139.9597	885
140.5411	2
140.9621	140
141.9592	2
143.0044	24
144.973	124
147.0325	90
148.0689	2
156.0367	2
157.9658	139
159.9693	2
160.9904	2
165.0761	2
167.9727	2
169.9665	735
171.0102	147
173.9615	722
174.9682	271
175.9779	54
180.0318	2
181.9669	119
183.0867	2
184.0406	28
185.0123	21
189.06	116
190.9842	32
193.0559	59
194.0709	2
194.5749	2
195.0718	2
195.9697	59
197.9827	19
199.977	999
201.0171	39
202.0607	183
202.5625	2
203.0429	118
205.0684	288
206.0306	155
207.0727	2
209.5489	2
210.0469	2
210.5486	2
211.047	2
211.5483	2
212.0452	2
212.5478	2
213.0435	2
217.0547	2
217.8601	13
218.9942	44
221.0232	149
225.9923	78
228.5175	2
230.4491	14
232.0033	35
235.9998	231
236.9725	312
239.0065	2
246.0165	2
252.0102	2
253.05	2
254.0084	709
258.1681	2
258.887	2
277.0243	2
278.0119	2
280.0232	2
282.0035	2
283.0484	2
285.0119	2
292.0236	71
293.1011	2
299.0276	20
302.0856	2
309.0276	2
319	31
320.9888	11
322.034	575
323.0403	2
350.9454	72
354.5019	2
367.1181	2
387.1449	2
389.1227	334
391.1267	2
403.1124	2
404.9565	2
414.0812	2
415.0851	2
416.0826	2
417.0872	2
418.077	341
419.0845	260
420.0845	2
421.0861	2
427.0736	2
449.122	2
470.9893	2
473.994	2
482.9855	2
499.9929	2
503.0359	2
568.954	2
