Mass spectrum: 11-deoxy Prostaglandin F1-beta; ESI-TOF; MS2; CE: 0.6458333;  [M+H]+
Name: 11-deoxy Prostaglandin F1-beta
Class: NA
Formula: C20H36O4
Exact mass: 340.26136
SMILES: O[C@H]1[C@H](CCCCCCC(O)=O)[C@@H](/C=C/[C@@H](O)CCCCC)CC1
InChI: InChI=1S/C20H36O4/c1-2-3-6-9-17(21)14-12-16-13-15-19(22)18(16)10-7-4-5-8-11-20(23)24/h12,14,16-19,21-22H,2-11,13,15H2,1H3,(H,23,24)/b14-12+/t16-,17-,18+,19+/m0/s1
Instrument: waters xevo g2 TOF
Instrument type: ESI-TOF
Ms type: MS2
Ion mode: POSITIVE
Ionization: ESI
Collision energy: 0.6458333
Column name: Acquity CSHC18
Retention time: 4.072 min
Base peak: 341.26936
Precursor m/z: 341.26936
Precursor type: [M+H]+
m/z	relative intensity
67.0541	182
69.0699	154
71.0845	13
79.0549	428
81.0703	531
82.0732	12
83.0858	132
85.1015	12
91.0553	290
93.0713	999
94.0741	45
95.0866	562
96.0896	26
97.0671	58
105.0712	462
106.0743	25
107.0869	834
108.0913	62
109.1025	266
111.082	26
119.0869	436
120.0901	36
121.1021	990
122.1054	88
123.1181	110
129.0703	107
131.0865	152
133.1026	277
134.1073	20
135.1181	469
136.1209	40
137.1332	43
143.0864	57
145.1027	96
147.1179	296
148.1215	25
149.133	196
150.1355	27
153.087	18
157.1007	111
159.1186	101
161.1339	275
162.1377	22
163.1491	195
164.1581	10
171.1179	131
173.1315	50
175.1488	131
177.1648	216
178.1685	23
185.1334	118
189.1638	86
191.1636	88
193.1228	50
195.1394	35
199.1493	43
203.1606	50
207.1384	82
209.1534	17
213.1638	33
220.0635	11
221.1541	220
223.1678	23
235.17	145
241.1878	20
245.224	15
249.133	211
259.2434	16
262.0639	22
263.1989	15
269.2256	60
281.0978	15
304.3009	15
305.2481	970
306.2503	210
307.2539	24
327.2146	17
329.2632	92
343.1972	112
