Mass spectrum: Ile-Tyr; LC-ESI-QTOF; MS2; CE: 15.00;  [M+H]+
Name: Ile-Tyr
Class: NA
Formula: C15H22N2O4
Exact mass: 294.1580
SMILES: CCC(C)C(C(=O)NC(CC1=CC=C(C=C1)O)C(=O)O)N
InChI: InChI=1S/C15H22N2O4/c1-3-9(2)13(16)14(19)17-12(15(20)21)8-10-4-6-11(18)7-5-10/h4-7,9,12-13,18H,3,8,16H2,1-2H3,(H,17,19)(H,20,21)
Instrument: Bruker MicrOTOF-Q
Instrument type: LC-ESI-QTOF
Ms type: MS2
Ion mode: POSITIVE
Ionization: ESI
Collision energy: 15.00
Column name: Acquity CSHC18
Retention time: NA
Base peak: 295.1652
Precursor m/z: 295.1652
Precursor type: [M+H]+
m/z	relative intensity
123.03	2
136.07	2
144.79	2
147.04	14
153.04	2
162.05	7
165.05	207
166.06	26
171.13	2
173.09	2
181.1	1
181.19	2
181.26	2
181.32	2
181.9	2
181.96	3
182.08	999
182.25	2
182.37	3
182.47	3
183.08	75
183.87	1
184.08	3
187.47	2
195.67	1
208.06	8
209	2
228.34	2
232.13	7
236.14	1
249.16	88
250.16	9
262.07	2
276.51	2
277.16	5
277.24	2
295.16	182
296.17	14
297.16	1
297.22	2
390.64	1
