Mass spectrum: kaempferol; LC-ESI-QTOF; MS2; CE: -10, -35, -60V;  [M-H]-
Name: kaempferol
Class: NA
Formula: C15H10O6
Exact mass: 286.0477
SMILES: C1=CC(=CC=C1C2=C(C(=O)C3=C(C=C(C=C3O2)O)O)O)O
InChI: InChI=1S/C15H10O6/c16-8-3-1-7(2-4-8)15-14(20)13(19)12-10(18)5-9(17)6-11(12)21-15/h1-6,16-18,20H
Instrument: TripleToF 5600; Sciex
Instrument type: LC-ESI-QTOF
Ms type: MS2
Ion mode: NEGATIVE
Ionization: ESI
Collision energy: -10, -35, -60V
Column name: Acquity CSHC18
Retention time: 15.651 min
Base peak: 285.0396
Precursor m/z: 285.0396
Precursor type: [M-H]-
Precursor intensity: 97191.5
m/z	relative intensity
93.0353	13
117.0316	10
117.0377	10
183.0429	27
213.048	12
227.0403	24
238.2223	14
255.028	37
256.0344	14
274.1613	11
283.0272	205
284.0279	84
285.0423	999
285.264	70
