Mass spectrum: Acetylglycine; LC-ESI-ITFT; MS2; CE: 60;  [M+H]+
Name: Acetylglycine
Class: Organic acids and derivatives; Carboxylic acids and derivatives; Amino acids, peptides, and analogues
Formula: C4H7NO3
Exact mass: 117.04259
SMILES: CC(=O)NCC(O)=O
InChI: InChI=1S/C4H7NO3/c1-3(6)5-2-4(7)8/h2H2,1H3,(H,5,6)(H,7,8)
Instrument: Thermo Scientific Q-Exactive Focus
Instrument type: LC-ESI-ITFT
Ms type: MS2
Ion mode: POSITIVE
Ionization: ESI
Collision energy: 60
Column name: Acquity CSHC18
Retention time: 2.014 min
Base peak: 118.04987
Precursor m/z: 118.04987
Precursor type: [M+H]+
m/z	relative intensity
73.3788	907
85.2701	855
94.2071	999
102.2253	865
106.9864	876
116.9497	901
119.4525	822
121.5652	821
130.0821	905
138.6491	894
