Mass spectrum: 1-oleoyl-2-palmitoyl-sn-glycero-3-phosphocholine; ESI-TOF; MS2; CE: 6.0000000;  [M+H]+
Name: 1-oleoyl-2-palmitoyl-sn-glycero-3-phosphocholine
Class: NA
Formula: C42H82NO8P
Exact mass: 759.57781
SMILES: [H]C(=C([H])C([H])([H])C([H])([H])C([H])([H])C([H])([H])C([H])([H])C([H])([H])C([H])([H])C([H])([H])[H])C([H])([H])C([H])([H])C([H])([H])C([H])([H])C([H])([H])C([H])([H])C([H])([H])C(=O)OC([H])([H])C([H])(OC(=O)C([H])([H])C([H])([H])C([H])([H])C([H])([H])C([H])([H])C([H])([H])C([H])([H])C([H])([H])C([H])([H])C([H])([H])C([H])([H])C([H])([H])C([H])([H])C([H])([H])C([H])([H])[H])C([H])([H])OP(=O)([O-])OC([H])([H])C([H])([H])[N+](C([H])([H])[H])(C([H])([H])[H])C([H])([H])[H]
InChI: InChI=1S/C42H82NO8P/c1-6-8-10-12-14-16-18-20-21-23-24-26-28-30-32-34-41(44)48-38-40(39-50-52(46,47)49-37-36-43(3,4)5)51-42(45)35-33-31-29-27-25-22-19-17-15-13-11-9-7-2/h20-21,40H,6-19,22-39H2,1-5H3
Instrument: waters xevo g2 TOF
Instrument type: ESI-TOF
Ms type: MS2
Ion mode: POSITIVE
Ionization: ESI
Collision energy: 6.0000000
Column name: Acquity CSHC18
Retention time: 11.190 min
Base peak: 760.58581
Precursor m/z: 760.58581
Precursor type: [M+H]+
m/z	relative intensity
145.9555	1
214.9182	2
288.1388	3
288.641	1
295.1951	65
296.1983	6
311.1676	3
321.2112	9
327.2203	3
337.1829	7
391.7807	2
399.7707	70
400.2717	33
400.7734	11
401.7677	2
407.7572	4
464.7486	3
465.2504	2
472.7342	2
473.2359	1
478.3295	14
479.3325	4
504.3448	144
505.3485	24
538.3968	2
548.1936	3
577.5187	7
578.5202	2
760.5841	999
761.5881	492
