Mass spectrum: Orotic acid; LC-ESI-ITFT; MS2; CE: 100;  [M-H]-
Name: Orotic acid
Class: Organoheterocyclic compounds; Diazines; Pyrimidines and pyrimidine derivatives
Formula: C5H4N2O4
Exact mass: 156.01711
SMILES: OC(=O)C1=CC(=O)NC(=O)N1
InChI: InChI=1S/C5H4N2O4/c8-3-1-2(4(9)10)6-5(11)7-3/h1H,(H,9,10)(H2,6,7,8,11)
Instrument: Thermo Scientific Q-Exactive Focus
Instrument type: LC-ESI-ITFT
Ms type: MS2
Ion mode: NEGATIVE
Ionization: ESI
Collision energy: 100
Column name: Acquity CSHC18
Retention time: 2.321 min
Base peak: 155.00983
Precursor m/z: 155.00983
Precursor type: [M-H]-
m/z	relative intensity
56.3192	906
60.7969	865
72.9738	909
77.5932	990
78.6965	878
95.7541	886
110.8948	999
113.8632	895
117.6015	901
129.037	962
