Mass spectrum: PTERIN; LC-ESI-QTOF; MS2; CE: 40;  [M+H]+
Name: PTERIN
Class: NA
Formula: C6H5N5O
Exact mass: 163.04941
SMILES: NC1=NC2=NC=CN=C2C(=O)N1
InChI: InChI=1S/C6H5N5O/c7-6-10-4-3(5(12)11-6)8-1-2-9-4/h1-2H,(H3,7,9,10,11,12)
Instrument: Agilent 6530Â Q-TOF LC/MS
Instrument type: LC-ESI-QTOF
Ms type: MS2
Ion mode: POSITIVE
Ionization: ESI
Collision energy: 40
Column name: NA
Retention time: 0.200 min
Base peak: 164.05880
Precursor m/z: 164.05880
Precursor type: [M+H]+
Precursor intensity: 82.5
m/z	relative intensity
40.013	136
40.0166	170
40.0202	145
42.028	294
42.0317	396
42.0354	363
42.0391	303
42.0428	257
42.0466	192
42.0503	147
43.0258	199
43.0296	194
43.0334	153
43.0371	133
52.0114	187
52.0156	263
52.0197	270
52.0238	228
52.028	174
68.0118	190
68.0166	656
68.0213	999
68.026	959
68.0308	756
68.0355	589
68.0402	468
68.0449	391
68.0497	330
68.0544	288
68.0591	187
68.0638	140
69.0413	143
77.0367	143
80.0331	141
80.0382	139
92.0123	370
92.0178	640
92.0233	656
92.0288	560
92.0343	455
92.0398	359
92.0453	284
92.0508	221
92.0563	165
96.0523	132
