Mass spectrum: TRANS-ACONITATE; LC-ESI-QTOF; MS2; CE: 10;  [M-H]-
Name: TRANS-ACONITATE
Class: NA
Formula: C6H6O6
Exact mass: 174.01644
SMILES: OC(=O)C\C(=C/C(O)=O)C(O)=O
InChI: InChI=1S/C6H6O6/c7-4(8)1-3(6(11)12)2-5(9)10/h1H,2H2,(H,7,8)(H,9,10)(H,11,12)/b3-1+
Instrument: Agilent 6530Â Q-TOF LC/MS
Instrument type: LC-ESI-QTOF
Ms type: MS2
Ion mode: NEGATIVE
Ionization: ESI
Collision energy: 10
Column name: NA
Retention time: 0.200 min
Base peak: 173.01298
Precursor m/z: 173.01298
Precursor type: [M-H]-
Precursor intensity: 160
m/z	relative intensity
41.0436	251
85.0468	272
129.0286	999
