Mass spectrum: (-)-epicatechin; LC-ESI-ITFT; MS2; CE: 0.3;  [M-H]-
Name: (-)-epicatechin
Class: flavanols
Formula: C15H14O6
Exact mass: 290.0790
SMILES: C1C(C(OC2=CC(=CC(=C21)O)O)C3=CC(=C(C=C3)O)O)O
InChI: InChI=1S/C15H14O6/c16-8-4-11(18)9-6-13(20)15(21-14(9)5-8)7-1-2-10(17)12(19)3-7/h1-5,13,15-20H,6H2
Instrument: LTQ-Orbitrap XL hybrid mass spectrometer (Thermo Scientific)
Instrument type: LC-ESI-ITFT
Ms type: MS2
Ion mode: NEGATIVE
Ionization: ESI
Collision energy: 0.3
Column name: Acquity CSHC18
Retention time: 6.257 min
Base peak: 289.0716
Precursor m/z: 289.0716
Precursor type: [M-H]-
Precursor intensity: 31603110
m/z	relative intensity
65.0728	2
66.2725	1
66.4291	5
66.5394	7
66.9173	2
66.9883	2
71.1089	2
71.8038	3
75.5302	2
75.6354	2
75.9567	2
77.2444	2
90.0281	2
109.0301	6
123.0457	7
125.025	39
135.0457	5
137.0249	35
139.0406	3
151.0406	19
159.0456	7
161.0247	3
161.0612	35
162.0324	2
164.0119	9
165.0197	37
167.0353	22
175.0404	9
179.0354	151
186.069	4
187.0403	21
188.0481	15
196.2043	5
196.2094	3
201.0925	3
202.0638	4
203.0717	133
205.051	395
217.0505	2
217.0873	5
227.0716	26
230.0586	2
231.0301	69
242.8708	2
243.4212	5
243.973	3
244.1942	3
245.069	6
245.0822	999
245.0935	6
246.0856	6
246.1992	2
246.76	3
247.0613	52
271.0612	41
287.2096	5
287.2158	9
287.9372	2
289.0592	1
289.0719	213
