Mass spectrum: 6-Methylsulfinylhexyl glucosinolate; LC-ESI-ITFT; MS2; CE: 30;  [M+H]+
Name: 6-Methylsulfinylhexyl glucosinolate
Class: NA
Formula: C14H27NO10S3
Exact mass: 465.0797
SMILES: CS(=O)CCCCCCC(=NOS(=O)(=O)O)SC1C(C(C(C(O1)CO)O)O)O
InChI: InChI=1S/C14H27NO10S3/c1-27(20)7-5-3-2-4-6-10(15-25-28(21,22)23)26-14-13(19)12(18)11(17)9(8-16)24-14/h9,11-14,16-19H,2-8H2,1H3,(H,21,22,23)
Instrument: q exactive focus thermo
Instrument type: LC-ESI-ITFT
Ms type: MS2
Ion mode: POSITIVE
Ionization: ESI
Collision energy: 30
Column name: Acquity CSHC18
Retention time: 3.326 min
Base peak: 466.0866
Precursor m/z: 466.0866
Precursor type: [M+H]+
Precursor intensity: 171010.9
m/z	relative intensity
100.0502	29
102.0646	38
102.9582	52
103.0434	53
103.9526	53
105.0497	54
105.9449	57
107.0178	58
107.9772	65
109.0154	67
110.0572	78
111.0808	78
113.0017	82
115.0467	82
116.0174	99
116.9831	101
117.9553	103
118.0647	105
118.9549	106
120.0691	107
120.9543	118
121.0949	122
123.0986	128
123.9548	129
124.0575	129
127.0577	132
128.0577	132
129.0454	144
129.9651	149
130.9723	153
131.0674	158
131.963	158
132.064	163
133.0161	164
135.0415	169
136.0336	175
137.0425	176
140.9899	192
141.9706	193
142.0997	200
144.9692	202
145.0716	203
148.9695	213
149.9502	220
150.963	225
152.041	225
154.9849	229
158.968	229
159.0983	233
160.9355	239
161.1147	243
163.057	243
168.9407	276
169.9501	288
171.0013	333
174.9826	361
181.9349	378
186.952	397
195.8861	475
201.8934	538
203.9096	588
210.903	638
213.9051	752
219.9032	867
220.8947	902
224.9019	999
