Mass spectrum: FERULATE; LC-ESI-QFT; MS2; CE: 30eV;  [M-H]-
Name: FERULATE
Class: NA
Formula: C10H10O4
Exact mass: 194.05791
SMILES: COC1=C(O)C=CC(\C=C\C(O)=O)=C1
InChI: InChI=1S/C10H10O4/c1-14-9-6-7(2-4-8(9)11)3-5-10(12)13/h2-6,11H,1H3,(H,12,13)/b5-3+
Instrument: Q-Exactive Orbitrap, Thermo Scientfic; Ultimate 3000 HPLC, Thermo Scientfic
Instrument type: LC-ESI-QFT
Ms type: MS2
Ion mode: NEGATIVE
Ionization: ESI
Collision energy: 30eV
Column name: Acquity CSHC18
Retention time: 6.690 min
Base peak: 193.0506
Precursor m/z: 193.0506
Precursor type: [M-H]-
Precursor intensity: 164
m/z	relative intensity
52.4362	1
54.23	1
60.8439	1
63.1301	1
77.0488	1
81.0776	1
81.6386	1
84.1944	1
102.9321	7
107.0487	1
114.7367	1
130.9382	2
133.0282	8
134.036	999
135.0394	69
137.0233	10
139.0389	2
149.0597	244
150.063	19
162.322	1
164.388	1
178.0262	769
179.0296	64
193.0499	277
194.0532	25
199.5946	1
201.2448	1
