Mass spectrum: 5-trans Prostaglandin F2-alpha (tromethamine salt); ESI-TOF; MS2; CE: 6.0000000;  [M+H]+
Name: 5-trans Prostaglandin F2-alpha (tromethamine salt)
Class: NA
Formula: C20H34O5
Exact mass: 354.24062
SMILES: O[C@@H]1[C@H](C/C=C/CCCC(O)=O)[C@@H](/C=C/[C@@H](O)CCCCC)[C@H](O)C1
InChI: InChI=1S/C20H34O5/c1-2-3-6-9-15(21)12-13-17-16(18(22)14-19(17)23)10-7-4-5-8-11-20(24)25/h4,7,12-13,15-19,21-23H,2-3,5-6,8-11,14H2,1H3,(H,24,25)/b7-4+,13-12+/t15-,16+,17+,18-,19+/m0/s1
Instrument: waters xevo g2 TOF
Instrument type: ESI-TOF
Ms type: MS2
Ion mode: POSITIVE
Ionization: ESI
Collision energy: 6.0000000
Column name: Acquity CSHC18
Retention time: 3.618 min
Base peak: 355.24862
Precursor m/z: 355.24862
Precursor type: [M+H]+
m/z	relative intensity
131.0868	3
149.1146	1
167.0723	17
173.1154	5
185.0966	4
187.1118	27
191.1078	2
193.1222	2
199.1131	15
201.126	6
203.1438	8
205.1232	9
217.1212	15
219.1583	5
231.1378	4
239.1785	10
240.1839	1
245.1889	7
247.2063	20
248.2085	3
257.1886	92
258.1926	6
263.2009	82
264.2035	13
265.2159	266
266.2183	43
275.2012	147
276.2035	29
283.2061	142
284.207	18
285.2181	6
291.2297	30
292.232	2
293.2118	26
299.1988	7
301.2165	999
302.2197	202
303.2294	60
304.2356	8
309.2025	5
311.1853	2
313.2127	2
317.2106	20
318.1266	17
319.1732	401
320.2308	153
321.2386	29
331.2258	5
332.1628	1
335.2213	13
337.2361	184
338.2386	21
347.1294	14
353.2269	3
356.2112	50
356.7112	19
