Mass spectrum: MELATONIN; LC-ESI-QTOF; MS2; CE: 40;  [M+H]+
Name: MELATONIN
Class: NA
Formula: C13H16N2O2
Exact mass: 232.12118
SMILES: COC1=CC2=C(NC=C2CCNC(C)=O)C=C1
InChI: InChI=1S/C13H16N2O2/c1-9(16)14-6-5-10-8-15-13-4-3-11(17-2)7-12(10)13/h3-4,7-8,15H,5-6H2,1-2H3,(H,14,16)
Instrument: Agilent 6530Â Q-TOF LC/MS
Instrument type: LC-ESI-QTOF
Ms type: MS2
Ion mode: POSITIVE
Ionization: ESI
Collision energy: 40
Column name: NA
Retention time: 0.200 min
Base peak: 233.13053
Precursor m/z: 233.13053
Precursor type: [M+H]+
Precursor intensity: 113.5
m/z	relative intensity
41.0482	11
42.0363	11
43.0399	11
44.0668	12
50.019	12
51.0436	12
52.0372	12
53.0383	12
54.0342	12
56.0538	12
60.0509	12
62.0141	13
63.0383	13
64.0365	13
65.0563	13
66.047	13
67.0451	13
69.0353	13
75.029	13
76.0351	13
77.2124	14
77.7134	14
78.2582	14
78.8288	14
79.0682	14
79.2033	14
80.0625	15
81.063	15
86.071	15
88.036	15
89.0755	15
89.3313	16
90.075	16
90.2966	16
91.3028	17
92.0437	17
93.0688	17
101.0427	18
102.062	18
103.3551	19
104.1799	19
104.5109	20
104.7589	20
105.2779	22
105.774	23
106.0579	24
107.0872	24
108.074	25
113.0706	25
114.0681	26
115.8658	27
117.3259	27
117.8275	28
118.0887	29
118.4336	30
119.0894	32
120.0419	33
121.0802	36
122.047	37
126.0491	39
127.0872	41
127.2779	44
128.0906	45
128.3502	45
128.7498	47
131.3399	51
134.0094	52
134.5028	62
134.7555	64
140.0762	65
140.4019	71
141.0921	73
142.4057	74
143.8665	77
145.0279	93
145.2649	94
145.372	98
145.5929	106
146.0984	111
146.2543	115
146.4485	120
146.6462	127
146.9587	128
147.1081	130
147.3028	141
148.0794	159
150.0351	200
153.0511	209
154.0916	217
155.0892	222
156.0829	223
157.0725	223
159.5142	255
161.2734	270
161.4117	273
162.1006	275
167.0781	280
168.076	281
169.088	291
172.0934	306
173.1136	322
174.1731	367
174.4442	413
174.6212	418
174.9167	454
183.0823	487
184.0646	999
185.0768	11
186.0566	11
209.2021	11
