Mass spectrum: (25S)-3beta,16beta-Diacetoxy-22,26-imino-5alpha-cholest-22(N)-en; APCI-ITFT; MS2; CE: CID 35;  [M-H]-
Name: (25S)-3beta,16beta-Diacetoxy-22,26-imino-5alpha-cholest-22(N)-en
Class: NA
Formula: C31H49NO4
Exact mass: 499.36616
SMILES: C[C@H]1CCC([C@@H](C)[C@H]2[C@@H](OC(C)=O)C[C@@]3([H])[C@]4([H])CC[C@@]5([H])C[C@@H](OC(C)=O)CC[C@]5(C)[C@@]4([H])CC[C@]23C)=NC1
InChI: InChI=1S/C31H49NO4/c1-18-7-10-27(32-17-18)19(2)29-28(36-21(4)34)16-26-24-9-8-22-15-23(35-20(3)33)11-13-30(22,5)25(24)12-14-31(26,29)6/h18-19,22-26,28-29H,7-17H2,1-6H3/t18-,19+,22-,23-,24+,25-,26-,28-,29-,30-,31-/m0/s1
Instrument: Orbitrap Elite
Instrument type: APCI-ITFT
Ms type: MS2
Ion mode: NEGATIVE
Ionization: APCI
Collision energy: CID 35
Column name: Acquity CSHC18
Retention time: 0.135 min
Base peak: 498.36000
Precursor m/z: 498.36000
Precursor type: [M-H]-
Precursor intensity: 130873.4
m/z	relative intensity
361.2026	20
380.2286	4
381.2136	5
383.2204	8
394.2818	6
397.239	26
398.2302	15
400.2495	4
412.2462	10
415.2569	5
420.2606	5
426.3114	7
434.3127	6
436.2887	32
438.2103	35
438.2731	159
452.2729	10
453.2708	5
454.2998	143
455.2794	7
456.291	39
456.3524	999
462.2587	15
466.3014	7
468.2793	6
468.4093	4
470.2893	20
480.2713	146
