Mass spectrum: 6-(Methylsulfinyl)hexyl isothiocyanate; LC-ESI-QTOF; MS2; CE: 15.00;  [M+H]+
Name: 6-(Methylsulfinyl)hexyl isothiocyanate
Class: NA
Formula: C8H15NOS2
Exact mass: 205.0595
SMILES: CS(=O)CCCCCCN=C=S
InChI: InChI=1S/C8H15NOS2/c1-12(10)7-5-3-2-4-6-9-8-11/h2-7H2,1H3
Instrument: Bruker MicrOTOF-Q
Instrument type: LC-ESI-QTOF
Ms type: MS2
Ion mode: POSITIVE
Ionization: ESI
Collision energy: 15.00
Column name: Acquity CSHC18
Retention time: NA
Base peak: 206.0668
Precursor m/z: 206.0668
Precursor type: [M+H]+
m/z	relative intensity
91.05	10
93.06	15
94.06	32
95.07	6
97	11
98.09	83
99.02	19
99.09	6
100.02	29
101.03	11
105.03	10
106.07	8
108.08	206
109.09	807
110.09	46
110.22	6
111.18	7
113.04	28
114.04	11
115.06	56
125.04	45
126.04	14
126.1	5
127.04	4
131.09	10
133.07	111
133.66	5
134.07	7
135.07	5
140.05	9
141.97	5
142.07	999
142.73	5
143.07	62
144.07	9
147.08	56
148.09	10
178.92	4
206.06	348
207.07	34
208.07	14
282.45	6
298.73	5
533.61	6
