Mass spectrum: 3beta-Amino-5beta-solanidan; APCI-ITFT; MS2; CE: 35 CID;  [M+H]+
Name: 3beta-Amino-5beta-solanidan
Class: NA
Formula: C27H46N2
Exact mass: 398.36610
SMILES: N[C@H]1CC[C@@]2(C)[C@@](CC[C@]3([H])[C@]2([H])CC[C@@]4(C)[C@@]3([H])C[C@@]5([H])[C@]4([H])[C@H](C)[C@]6([H])N5C[C@@H](C)CC6)([H])C1
InChI: InChI=1S/C27H46N2/c1-16-5-8-23-17(2)25-24(29(23)15-16)14-22-20-7-6-18-13-19(28)9-11-26(18,3)21(20)10-12-27(22,25)4/h16-25H,5-15,28H2,1-4H3/t16-,17+,18+,19-,20+,21-,22-,23+,24-,25-,26-,27-/m0/s1
Instrument: Orbitrap Elite
Instrument type: APCI-ITFT
Ms type: MS2
Ion mode: POSITIVE
Ionization: APCI
Collision energy: 35 CID
Column name: Acquity CSHC18
Retention time: 0.092 min
Base peak: 399.37250
Precursor m/z: 399.37250
Precursor type: [M+H]+
Precursor intensity: 3732157
m/z	relative intensity
147.1172	3
201.1646	1
253.1962	1
353.3274	1
381.3372	9
382.3469	999
