Mass spectrum: (E)-Ferulic acid; LC-ESI-QTOF; MS2; CE: 15.00;  [M-H2O+H]+
Name: (E)-Ferulic acid
Class: NA
Formula: C10H10O4
Exact mass: 194.0579
SMILES: COC1=C(C=CC(=C1)C=CC(=O)O)O
InChI: InChI=1S/C10H10O4/c1-14-9-6-7(2-4-8(9)11)3-5-10(12)13/h2-6,11H,1H3,(H,12,13)
Instrument: Bruker MicrOTOF-Q
Instrument type: LC-ESI-QTOF
Ms type: MS2
Ion mode: POSITIVE
Ionization: ESI
Collision energy: 15.00
Column name: Acquity CSHC18
Retention time: NA
Base peak: 177.0546
Precursor m/z: 177.0546
Precursor type: [M-H2O+H]+
m/z	relative intensity
117.0312	26
118.0347	36
134.0342	47
145.0269	52
146.0304	77
149.0585	90
162.0311	279
163.0374	404
177.055	791
178.0578	999
