Mass spectrum: Glucose-1-phosphate; LC-ESI-QTOF; MS2; CE: -10, -35, -60V;  [M-H]-
Name: Glucose-1-phosphate
Class: NA
Formula: C6H13O9P
Exact mass: 260.0297
SMILES: C(C1C(C(C(C(O1)OP(=O)(O)O)O)O)O)O
InChI: InChI=1S/C6H13O9P/c7-1-2-3(8)4(9)5(10)6(14-2)15-16(11,12)13/h2-10H,1H2,(H2,11,12,13)
Instrument: TripleToF 5600; Sciex
Instrument type: LC-ESI-QTOF
Ms type: MS2
Ion mode: NEGATIVE
Ionization: ESI
Collision energy: -10, -35, -60V
Column name: Acquity CSHC18
Retention time: 5.942 min
Base peak: 259.0225
Precursor m/z: 259.0225
Precursor type: [M-H]-
Precursor intensity: 59323.63
m/z	relative intensity
78.9595	606
96.9702	72
138.9834	30
241.0132	138
246.1729	8
257.0045	78
258.1939	9
259.027	999
