Mass spectrum: L-Aspartic acid; LC-ESI-QTOF; MS2; CE: 15.00;  [2M-2H+H]+
Name: L-Aspartic acid
Class: NA
Formula: C4H7NO4
Exact mass: 133.0375
SMILES: C(C(C(=O)O)N)C(=O)O
InChI: InChI=1S/C4H7NO4/c5-2(4(8)9)1-3(6)7/h2H,1,5H2,(H,6,7)(H,8,9)
Instrument: Bruker MicrOTOF-Q
Instrument type: LC-ESI-QTOF
Ms type: MS2
Ion mode: POSITIVE
Ionization: ESI
Collision energy: 15.00
Column name: Acquity CSHC18
Retention time: NA
Base peak: 265.0677
Precursor m/z: 265.0677
Precursor type: [2M-2H+H]+
m/z	relative intensity
46.0914	52
53.0489	38
54.3434	63
57.9108	47
58.6597	31
63.1866	42
66.1816	42
66.4013	50
71.4843	41
72.0644	63
75.6552	39
77.4147	26
78.3639	47
78.9207	39
79.5813	43
84.3608	56
88.0345	44
89.7974	37
91.9043	26
94.9467	56
97.4238	47
113.7818	51
114.0231	50
115.0088	191
115.185	48
115.8783	48
118.015	31
118.1518	27
120.2886	39
121.9305	38
123.911	54
124.8888	47
131.6498	51
132.0296	999
132.1109	48
132.9466	37
138.6017	34
146.7179	35
159.7697	34
202.025	48
223.1474	50
226.8812	44
271.5829	30
300.7694	34
317.1385	43
389.6641	29
401.2899	42
423.2661	52
447.7389	27
478.9376	27
505.8053	29
548.8934	31
761.3994	46
854.0131	27
870.0029	33
880.732	42
926.2011	31
