Mass spectrum: syringic acid; LC-ESI-QTOF; MS2; CE: 7-62eV;  [M-H]-
Name: syringic acid
Class: Phenolics
Formula: C9H10O5
Exact mass: 198.0528
SMILES: COC1=CC(=CC(=C1O)OC)C(=O)O
InChI: InChI=1S/C9H10O5/c1-13-6-3-5(9(11)12)4-7(14-2)8(6)10/h3-4,10H,1-2H3,(H,11,12)
Instrument: Bruker MicrOTOF-Q
Instrument type: LC-ESI-QTOF
Ms type: MS2
Ion mode: NEGATIVE
Ionization: ESI
Collision energy: 7-62eV
Column name: Acquity CSHC18
Retention time: 31.922 min
Base peak: 197.0450
Precursor m/z: 197.0450
Precursor type: [M-H]-
Precursor intensity: 83661.81
m/z	relative intensity
95.0156	14
96.0168	21
106.0063	21
108.0207	22
109.0316	23
121.0276	23
123.0138	25
124.0148	27
125.0127	30
137.0249	34
138.0365	40
139.0368	57
153.0559	109
167.0095	127
168.0069	131
169.0072	132
181.0123	237
182.0292	689
183.0318	781
184.0285	850
197.0583	999
