Mass spectrum: 11-deoxy Prostaglandin F1-beta; ESI-TOF; MS2; CE: 6.0000000;  [M+H]+
Name: 11-deoxy Prostaglandin F1-beta
Class: NA
Formula: C20H36O4
Exact mass: 340.26136
SMILES: O[C@H]1[C@H](CCCCCCC(O)=O)[C@@H](/C=C/[C@@H](O)CCCCC)CC1
InChI: InChI=1S/C20H36O4/c1-2-3-6-9-17(21)14-12-16-13-15-19(22)18(16)10-7-4-5-8-11-20(23)24/h12,14,16-19,21-22H,2-11,13,15H2,1H3,(H,23,24)/b14-12+/t16-,17-,18+,19+/m0/s1
Instrument: waters xevo g2 TOF
Instrument type: ESI-TOF
Ms type: MS2
Ion mode: POSITIVE
Ionization: ESI
Collision energy: 6.0000000
Column name: Acquity CSHC18
Retention time: 4.072 min
Base peak: 341.26936
Precursor m/z: 341.26936
Precursor type: [M+H]+
m/z	relative intensity
81.0703	4
95.0866	4
109.1025	16
119.069	2
121.1021	5
134.0498	6
135.1181	11
147.1179	13
149.133	7
153.087	1
161.1339	4
163.1491	5
165.1264	2
172.1005	10
175.1129	3
177.1648	22
178.1685	2
181.1075	24
186.11	3
189.1638	6
193.1228	40
195.1394	14
203.1606	1
207.1384	9
209.1534	3
217.1585	2
221.1541	24
223.1678	8
224.1705	1
225.147	2
235.1513	3
249.1853	16
259.2046	6
269.2256	17
270.2283	3
277.2505	1
279.2326	2
285.2195	1
286.1684	4
287.2374	33
288.2395	6
305.1761	999
306.2503	480
307.2539	55
313.2144	2
321.243	14
323.2584	42
324.2625	8
331.2239	1
342.2309	81
342.7338	32
343.1972	8
