Mass spectrum: 2,6-DIHYDROXYPYRIDINE; LC-ESI-QTOF; MS2; CE: 40;  [M-H]-
Name: 2,6-DIHYDROXYPYRIDINE
Class: NA
Formula: C5H5NO2
Exact mass: 111.03203
SMILES: C1=CC(=O)NC(=C1)O
InChI: InChI=1S/C5H5NO2/c7-4-2-1-3-5(8)6-4/h1-3H,(H2,6,7,8)
Instrument: Agilent 6530Â Q-TOF LC/MS
Instrument type: LC-ESI-QTOF
Ms type: MS2
Ion mode: NEGATIVE
Ionization: ESI
Collision energy: 40
Column name: NA
Retention time: 0.200 min
Base peak: 110.02520
Precursor m/z: 110.02520
Precursor type: [M-H]-
Precursor intensity: 186
m/z	relative intensity
40.0359	123
41.0179	125
42.0099	142
49.0067	177
50.0094	332
65.004	604
66.0321	878
67.019	999
