Mass spectrum: Sclareol; LC-ESI-QTOF; MS2; CE: 15.00;  [M-C6H14O2+H]+
Name: Sclareol
Class: NA
Formula: C20H36O2
Exact mass: 308.2715
SMILES: CC1(CCCC2(C1CCC(C2CCC(C)(C=C)O)(C)O)C)C
InChI: InChI=1S/C20H36O2/c1-7-18(4,21)13-9-16-19(5)12-8-11-17(2,3)15(19)10-14-20(16,6)22/h7,15-16,21-22H,1,8-14H2,2-6H3
Instrument: Bruker MicrOTOF-Q
Instrument type: LC-ESI-QTOF
Ms type: MS2
Ion mode: POSITIVE
Ionization: ESI
Collision energy: 15.00
Column name: Acquity CSHC18
Retention time: NA
Base peak: 191.1794
Precursor m/z: 191.1794
Precursor type: [M-C6H14O2+H]+
m/z	relative intensity
91.05	57
93.07	111
95.08	179
96.09	25
105.07	96
107.08	541
109.1	462
115.75	19
121.1	552
122.1	121
123.12	96
133.1	46
134.1	49
135.12	621
136.12	168
147.12	123
148.12	64
149.13	768
150.14	70
163.14	29
175.15	54
176.15	21
189.15	23
191.18	999
192.18	47
674.01	18
