Mass spectrum: Monomethyl phthalate; LC-ESI-ITFT; MS2; CE: 100;  [M+H]+
Name: Monomethyl phthalate
Class: Benzenoids; Benzene and substituted derivatives; Benzoic acids and derivatives
Formula: C9H8O4
Exact mass: 180.04226
SMILES: COC(=O)C1=CC=CC=C1C(O)=O
InChI: InChI=1S/C9H8O4/c1-13-9(12)7-5-3-2-4-6(7)8(10)11/h2-5H,1H3,(H,10,11)
Instrument: Thermo Scientific Q-Exactive Focus
Instrument type: LC-ESI-ITFT
Ms type: MS2
Ion mode: POSITIVE
Ionization: ESI
Collision energy: 100
Column name: Acquity CSHC18
Retention time: NA
Base peak: 181.04955
Precursor m/z: 181.04955
Precursor type: [M+H]+
m/z	relative intensity
50.0157	541
51.0235	349
53.0028	472
55.0184	19
56.9653	25
61.0078	79
62.0156	385
63.0234	999
65.0027	44
74.0155	112
