Mass spectrum: cis-Pinan-2-ol; APCI-ITFT; MS2; CE: 35 CID;  [M+H-H2O]+
Name: cis-Pinan-2-ol
Class: NA
Formula: C10H18O
Exact mass: 154.13577
SMILES: CC1(C2CCC(C1C2)(C)O)C
InChI: InChI=1S/C10H18O/c1-9(2)7-4-5-10(3,11)8(9)6-7/h7-8,11H,4-6H2,1-3H3
Instrument: Orbitrap Elite
Instrument type: APCI-ITFT
Ms type: MS2
Ion mode: POSITIVE
Ionization: APCI
Collision energy: 35 CID
Column name: Acquity CSHC18
Retention time: 0.110 min
Base peak: 137.13200
Precursor m/z: 137.13200
Precursor type: [M+H-H2O]+
Precursor intensity: 97213580
m/z	relative intensity
77.0388	1
79.0538	28
81.0696	568
83.085	1
91.0538	1
93.0695	7
95.0854	619
105.0446	1
107.0851	2
108.0931	2
109.1008	46
121.1004	1
122.1087	1
135.1158	3
136.1202	1
137.1324	999
