Mass spectrum: 15-keto Prostaglandin E1; ESI-TOF; MS2; CE: 6.0000000;  [M+H]+
Name: 15-keto Prostaglandin E1
Class: NA
Formula: C20H32O5
Exact mass: 352.22497
SMILES: O[C@H]1[C@H](/C=C/C(CCCCC)=O)[C@@H](CCCCCCC(O)=O)C(C1)=O
InChI: InChI=1S/C20H32O5/c1-2-3-6-9-15(21)12-13-17-16(18(22)14-19(17)23)10-7-4-5-8-11-20(24)25/h12-13,16-17,19,23H,2-11,14H2,1H3,(H,24,25)/b13-12+/t16-,17-,19-/m1/s1
Instrument: waters xevo g2 TOF
Instrument type: ESI-TOF
Ms type: MS2
Ion mode: POSITIVE
Ionization: ESI
Collision energy: 6.0000000
Column name: Acquity CSHC18
Retention time: 3.544 min
Base peak: 353.23297
Precursor m/z: 353.23297
Precursor type: [M+H]+
m/z	relative intensity
135.0815	2
177.1459	5
196.0934	67
201.1278	36
205.0983	3
219.1384	41
220.1414	6
221.116	3
265.2131	3
271.2052	8
273.1834	4
289.215	24
291.1942	9
293.1989	2
299.2008	84
300.2041	13
317.2107	413
318.2141	76
319.2152	9
335.2217	999
336.2247	228
337.1794	12
353.2319	161
354.234	33
