Mass spectrum: (-)-epigallocatechin gallate; LC-ESI-ITFT; MS2; CE: 0.3;  [M+H]+
Name: (-)-epigallocatechin gallate
Class: flavanols
Formula: C22H18O11
Exact mass: 458.0849
SMILES: C1C(C(OC2=CC(=CC(=C21)O)O)C3=CC(=C(C(=C3)O)O)O)OC(=O)C4=CC(=C(C(=C4)O)O)O
InChI: InChI=1S/C22H18O11/c23-10-5-12(24)11-7-18(33-22(31)9-3-15(27)20(30)16(28)4-9)21(32-17(11)6-10)8-1-13(25)19(29)14(26)2-8/h1-6,18,21,23-30H,7H2
Instrument: LTQ-Orbitrap XL hybrid mass spectrometer (Thermo Scientific)
Instrument type: LC-ESI-ITFT
Ms type: MS2
Ion mode: POSITIVE
Ionization: ESI
Collision energy: 0.3
Column name: Acquity CSHC18
Retention time: 6.258 min
Base peak: 459.0937
Precursor m/z: 459.0937
Precursor type: [M+H]+
Precursor intensity: 6230908
m/z	relative intensity
117.0075	4
134.1406	3
135.932	3
139.0393	159
151.0394	163
153.0186	19
163.0395	18
181.0503	8
196.0949	4
196.1752	12
196.2545	3
197.1291	2
205.0503	15
221.7917	3
247.0611	7
271.0612	14
286.9456	7
287.356	3
287.3666	17
287.3808	6
287.3923	6
287.4001	3
287.6512	5
287.9348	3
289.0352	2
289.0404	4
289.0479	5
289.0552	6
289.0595	4
289.072	999
289.082	5
289.0879	5
289.0917	5
289.0987	3
290.0753	19
291.0511	11
293.3963	2
300.9419	2
307.0826	35
323.7768	3
323.7848	2
333.0619	32
335.6631	3
441.0839	8
456.8726	5
