Mass spectrum: Ginsenoside Rb2; LC-ESI-QFT; MS2; CE: 15,30,45 (NCE);  [M+Na]+
Name: Ginsenoside Rb2
Class: NA
Formula: C53H90O22
Exact mass: 1078.5924
SMILES: CC(C)=CCCC(C)(OC1OC(COC2OCC(O)C(O)C2O)C(O)C(O)C1O)C1CCC2(C)C1C(O)CC1C3(C)CCC(OC4OC(CO)C(O)C(O)C4OC4OC(CO)C(O)C(O)C4O)C(C)(C)C3CCC21C
InChI: InChI=1S/C53H90O22/c1-23(2)10-9-14-53(8,75-47-43(67)39(63)37(61)29(72-47)22-69-45-41(65)34(58)26(57)21-68-45)24-11-16-52(7)33(24)25(56)18-31-50(5)15-13-32(49(3,4)30(50)12-17-51(31,52)6)73-48-44(40(64)36(60)28(20-55)71-48)74-46-42(66)38(62)35(59)27(19-54)70-46/h10,24-48,54-67H,9,11-22H2,1-8H3
Instrument: QE Focus, Thermo Scientfic; UPLC I-Class, Waters
Instrument type: LC-ESI-QFT
Ms type: MS2
Ion mode: POSITIVE
Ionization: ESI
Collision energy: 15,30,45 (NCE)
Column name: Acquity CSHC18
Retention time: 2.835 min
Base peak: 1101.5840
Precursor m/z: 1101.5840
Precursor type: [M+Na]+
Precursor intensity: 9131729
m/z	relative intensity
196.4231	1
203.0534	7
245.0634	1
275.0739	7
276.9631	1
335.0956	482
336.099	4
365.1065	26
723.5575	1
781.4332	1
789.4778	333
790.4822	9
1071.7849	1
1101.5845	999
