Mass spectrum: Ascorbic acid; LC-ESI-ITFT; MS2; CE: 30;  [M-H]-
Name: Ascorbic acid
Class: Organoheterocyclic compounds; Dihydrofurans; Furanones
Formula: C6H8O6
Exact mass: 176.03209
SMILES: [H][C@@]1(OC(=O)C(O)=C1O)[C@@H](O)CO
InChI: InChI=1S/C6H8O6/c7-1-2(8)5-3(9)4(10)6(11)12-5/h2,5,7-10H,1H2/t2-,5+/m0/s1
Instrument: Thermo Scientific Q-Exactive Focus
Instrument type: LC-ESI-ITFT
Ms type: MS2
Ion mode: NEGATIVE
Ionization: ESI
Collision energy: 30
Column name: Acquity CSHC18
Retention time: 0.925 min
Base peak: 175.02481
Precursor m/z: 175.02481
Precursor type: [M-H]-
m/z	relative intensity
55.0178	8
59.0127	181
67.0178	11
71.0127	83
72.9919	43
87.0076	999
90.9702	32
115.0025	7
118.9652	81
162.4888	6
