Mass spectrum: Dihydroxyacetone; ESI-TOF; MS2; CE: 0.6458333;  [M+H]+
Name: Dihydroxyacetone
Class: NA
Formula: C3H6O3
Exact mass: 90.03169
SMILES: OCC(=O)CO
InChI: InChI=1S/C3H6O3/c4-1-3(6)2-5/h4-5H,1-2H2
Instrument: waters xevo g2 TOF
Instrument type: ESI-TOF
Ms type: MS2
Ion mode: POSITIVE
Ionization: ESI
Collision energy: 0.6458333
Column name: Acquity CSHC18
Retention time: 0.569 min
Base peak: 91.03969
Precursor m/z: 91.03969
Precursor type: [M+H]+
m/z	relative intensity
87.0028	6
89.9412	22
90.9494	37
99.0108	88
102.093	14
102.9975	34
109.9797	11
110.9764	63
111.9452	47
113.0206	6
113.9644	999
115.0148	89
115.9665	195
116.9824	13
127.0008	144
127.9571	116
131.9517	93
143.9603	112
144.9858	64
164.9665	6
169.967	8
173.9619	114
190.9357	3
203.9729	17
240.8904	5
246.9009	5
274.9868	107
276.0354	10
302.1957	3
333.0806	13
347.0958	27
348.1015	2
437.1263	30
441.3346	6
