Mass spectrum: 8-Methylthiooctyl glucosinolate; LC-ESI-ITFT; MS2; CE: 30;  [M+H]+
Name: 8-Methylthiooctyl glucosinolate
Class: NA
Formula: C16H31NO9S3
Exact mass: 477.1161
SMILES: CSCCCCCCCCC(=NOS(=O)(=O)O)SC1C(C(C(C(O1)CO)O)O)O
InChI: InChI=1S/C16H31NO9S3/c1-27-9-7-5-3-2-4-6-8-12(17-26-29(22,23)24)28-16-15(21)14(20)13(19)11(10-18)25-16/h11,13-16,18-21H,2-10H2,1H3,(H,22,23,24)
Instrument: q exactive focus thermo
Instrument type: LC-ESI-ITFT
Ms type: MS2
Ion mode: POSITIVE
Ionization: ESI
Collision energy: 30
Column name: Acquity CSHC18
Retention time: 8.739 min
Base peak: 478.1226
Precursor m/z: 478.1226
Precursor type: [M+H]+
Precursor intensity: 4556611
m/z	relative intensity
101.0066	6
102.0692	11
103.042	12
105.0642	13
107.07	15
108.0672	20
109.085	21
112.9613	21
113.0513	22
114.0645	22
114.9568	22
116.0564	25
116.9839	26
117.0731	28
119.058	30
120.0683	40
121.0579	43
123.0987	46
129.9659	48
133.0939	54
134.1006	62
135.0988	65
137.1078	78
138.1136	82
139.1212	84
141.0807	85
142.953	92
143.0813	92
145.0716	113
149.0837	115
162.0459	121
163.1119	123
171.0915	136
185.056	202
191.125	238
208.0905	515
219.0639	669
300.0626	999
