Mass spectrum: 4-hydroxyphenylacetic acid; LC-ESI-QTOF; MS2; CE: 15.00;  [M+H]+
Name: 4-hydroxyphenylacetic acid
Class: NA
Formula: C8H8O3
Exact mass: 152.0473
SMILES: C1=CC(=CC=C1CC(=O)O)O
InChI: InChI=1S/C8H8O3/c9-7-3-1-6(2-4-7)5-8(10)11/h1-4,9H,5H2,(H,10,11)
Instrument: Bruker MicrOTOF-Q
Instrument type: LC-ESI-QTOF
Ms type: MS2
Ion mode: POSITIVE
Ionization: ESI
Collision energy: 15.00
Column name: Acquity CSHC18
Retention time: NA
Base peak: 153.0546
Precursor m/z: 153.0546
Precursor type: [M+H]+
m/z	relative intensity
77.0351	1
106.5546	2
106.8462	1
107.0453	999
107.259	2
107.3161	2
107.426	1
107.4687	1
107.6144	1
107.8892	1
108.0496	85
108.1841	2
108.9613	1
278.9725	1
