Mass spectrum: C16-04:0 PC; ESI-TOF; MS2; CE: 6.0000000;  [M+H]+
Name: C16-04:0 PC
Class: NA
Formula: C28H58NO7P
Exact mass: 551.39509
SMILES: [H]C([H])([H])C([H])([H])C([H])([H])C(=O)OC([H])(C([H])([H])OC([H])([H])C([H])([H])C([H])([H])C([H])([H])C([H])([H])C([H])([H])C([H])([H])C([H])([H])C([H])([H])C([H])([H])C([H])([H])C([H])([H])C([H])([H])C([H])([H])C([H])([H])C([H])([H])[H])C([H])([H])OP(=O)([O-])OC([H])([H])C([H])([H])[N+](C([H])([H])[H])(C([H])([H])[H])C([H])([H])[H]
InChI: InChI=1S/C28H58NO7P/c1-6-8-9-10-11-12-13-14-15-16-17-18-19-20-23-33-25-27(36-28(30)21-7-2)26-35-37(31,32)34-24-22-29(3,4)5/h27H,6-26H2,1-5H3
Instrument: waters xevo g2 TOF
Instrument type: ESI-TOF
Ms type: MS2
Ion mode: POSITIVE
Ionization: ESI
Collision energy: 6.0000000
Column name: Acquity CSHC18
Retention time: 8.560 min
Base peak: 552.40309
Precursor m/z: 552.40309
Precursor type: [M+H]+
m/z	relative intensity
127.0074	51
145.0173	2
159.0332	7
184.074	138
185.077	8
186.0782	1
260.6568	5
268.6446	3
269.6441	3
287.6906	4
288.1912	3
295.6792	78
296.1811	26
296.6822	5
303.6655	15
304.1663	3
304.6661	23
305.1685	4
305.664	6
310.0726	4
326.0451	2
328.0457	1
360.658	3
369.3365	6
382.3005	2
464.3499	137
465.3532	40
466.3557	6
515.3085	1
526.323	1
543.8348	2
552.4731	999
553.4057	947
