Mass spectrum: zymostenol; ESI-TOF; MS2; CE: 0.6458333;  [M+H]+
Name: zymostenol
Class: NA
Formula: C27H46O
Exact mass: 386.35487
SMILES: [H]OC1([H])(C([H])([H])C([H])([H])C2(C3=C(C([H])([H])C([H])([H])C2([H])(C1([H])([H])))C4([H])(C([H])([H])C([H])([H])C([H])(C([H])(C([H])([H])[H])C([H])([H])C([H])([H])C([H])([H])C([H])(C([H])([H])[H])C([H])([H])[H])C4(C([H])([H])[H])(C([H])([H])C3([H])([H]))))(C([H])([H])[H]))
InChI: InChI=1S/C27H46O/c1-18(2)7-6-8-19(3)23-11-12-24-22-10-9-20-17-21(28)13-15-26(20,4)25(22)14-16-27(23,24)5/h18-21,23-24,28H,6-17H2,1-5H3
Instrument: waters xevo g2 TOF
Instrument type: ESI-TOF
Ms type: MS2
Ion mode: POSITIVE
Ionization: ESI
Collision energy: 0.6458333
Column name: Acquity CSHC18
Retention time: 10.730 min
Base peak: 387.36287
Precursor m/z: 387.36287
Precursor type: [M+H]+
m/z	relative intensity
83.0855	87
95.0863	324
97.1026	92
107.0853	121
121.1014	167
133.1021	120
135.1174	177
149.1328	149
189.1659	160
201.1654	133
215.1801	198
220.1779	87
229.1968	170
257.2261	129
369.3512	999
369.3537	3
370.3557	292
371.3569	3
386.355	971
387.3582	193
409.3448	247
447.3614	3
471.3125	91
604.3056	106
620.025	3
620.5274	3
792.6933	265
793.1944	340
793.6944	186
795.704	3
796.7039	3
797.7072	3
808.5098	152
823.4893	74
829.5778	3
986.3704	3
986.875	3
