Mass spectrum: (2-AMINOETHYL)PHOSPHONATE; LC-ESI-QTOF; MS2; CE: 20;  [M-H]-
Name: (2-AMINOETHYL)PHOSPHONATE
Class: NA
Formula: C2H8NO3P
Exact mass: 125.02418
SMILES: NCCP(O)(O)=O
InChI: InChI=1S/C2H8NO3P/c3-1-2-7(4,5)6/h1-3H2,(H2,4,5,6)
Instrument: Agilent 6530Â Q-TOF LC/MS
Instrument type: LC-ESI-QTOF
Ms type: MS2
Ion mode: NEGATIVE
Ionization: ESI
Collision energy: 20
Column name: NA
Retention time: 0.200 min
Base peak: 124.01727
Precursor m/z: 124.01727
Precursor type: [M-H]-
Precursor intensity: 155
m/z	relative intensity
45.9956	171
62.0002	252
62.9703	469
78.9769	999
