Mass spectrum: S4:22(2,5,5,10); LC-ESI-QTOF; MS2; CE: -10,-35,-60V;  [M+FA-H]-
Name: S4:22(2,5,5,10)
Class: acyl sugar
Formula: C34H58O15
Exact mass: 706.3776
SMILES: CC(O[C@@H]2[C@H](O[C@]1(O[C@@H](CO)[C@H](O)[C@H]1OC(CCCCCCC(C)C)=O)CO)O[C@@H](CO)[C@@H]([C@H]2OC(C(C)CC)=O)OC(CC(C)C)=O)=O
InChI: InChI=1S/C34H58O15/c1-8-21(6)32(42)47-29-28(45-26(40)15-20(4)5)24(17-36)44-33(30(29)43-22(7)38)49-34(18-37)31(27(41)23(16-35)48-34)46-25(39)14-12-10-9-11-13-19(2)3/h19-21,23-24,27-31,33,35-37,41H,8-18H2,1-7H3/t21?,23-,24-,27-,28-,29+,30-,31+,33-,34+/m0/s1
Instrument: TripleToF5600, Sciex; Acquity, Waters
Instrument type: LC-ESI-QTOF
Ms type: MS2
Ion mode: NEGATIVE
Ionization: ESI
Collision energy: -10,-35,-60V
Column name: Acquity CSHC18
Retention time: 15.008 min
Base peak: 751.3788
Precursor m/z: 751.3788
Precursor type: [M+FA-H]-
Precursor intensity: 4797059
m/z	relative intensity
71.0159	8
83.0154	6
87.0085	19
87.0467	19
89.0243	7
101.0237	130
101.0606	130
113.0194	14
113.0254	14
143.0274	11
143.0713	11
161.055	9
171.1425	119
172.143	13
173.1484	1
185.1586	24
323.0928	22
341.0996	14
393.1555	3
407.1647	26
425.1718	46
426.1825	9
449.1608	7
467.1786	13
492.2056	3
495.2043	34
496.2101	8
509.2317	157
510.2357	45
537.2196	23
538.2082	6
551.2391	140
552.2438	44
554.2793	1
579.2964	13
621.308	5
622.3148	1
663.3677	138
664.3497	55
664.3716	55
665.3726	12
705.3755	64
706.3995	24
707.3903	6
741.3518	419
742.3554	388
743.3018	554
743.3596	554
744.3491	260
745.3392	54
747.3563	2
748.3871	368
748.9704	27
749.3915	184
750.0757	8
750.3889	55
750.9769	6
751.3676	549
751.3909	548
752.3702	999
753.3735	780
