Mass spectrum: Rosmarinic acid; LC-ESI-QTOF; MS2; CE: 19.43;  [M-H]-
Name: Rosmarinic acid
Class: NA
Formula: C18H16O8
Exact mass: 360.0845
SMILES: C1=CC(=C(C=C1CC(C(=O)O)OC(=O)C=CC2=CC(=C(C=C2)O)O)O)O
InChI: InChI=1S/C18H16O8/c19-12-4-1-10(7-14(12)21)3-6-17(23)26-16(18(24)25)9-11-2-5-13(20)15(22)8-11/h1-8,16,19-22H,9H2,(H,24,25)
Instrument: Bruker MicrOTOF-Q
Instrument type: LC-ESI-QTOF
Ms type: MS2
Ion mode: NEGATIVE
Ionization: ESI
Collision energy: 19.43
Column name: Acquity CSHC18
Retention time: NA
Base peak: 359.0772
Precursor m/z: 359.0772
Precursor type: [M-H]-
m/z	relative intensity
109.0324	3
123.0455	73
124.0471	5
133.0303	98
134.0355	15
135.045	174
136.0506	12
137.0506	1
151.0407	26
159.0456	1
160.3248	1
160.6125	1
161.025	999
161.3228	3
161.9065	1
162.0278	106
163.029	10
179.0352	246
180.0385	24
197.0458	276
198.0485	30
