Mass spectrum: 8-iso Prostaglandin F2-alpha; ESI-TOF; MS2; CE: 6.0000000;  [M+H]+
Name: 8-iso Prostaglandin F2-alpha
Class: NA
Formula: C20H34O5
Exact mass: 354.24062
SMILES: O[C@@H]1[C@@H](C/C=C\CCCC(O)=O)[C@@H](/C=C/[C@@H](O)CCCCC)[C@H](O)C1
InChI: InChI=1S/C20H34O5/c1-2-3-6-9-15(21)12-13-17-16(18(22)14-19(17)23)10-7-4-5-8-11-20(24)25/h4,7,12-13,15-19,21-23H,2-3,5-6,8-11,14H2,1H3,(H,24,25)/b7-4-,13-12+/t15-,16-,17+,18-,19+/m0/s1
Instrument: waters xevo g2 TOF
Instrument type: ESI-TOF
Ms type: MS2
Ion mode: POSITIVE
Ionization: ESI
Collision energy: 6.0000000
Column name: Acquity CSHC18
Retention time: 3.466 min
Base peak: 355.24862
Precursor m/z: 355.24862
Precursor type: [M+H]+
m/z	relative intensity
97.0655	2
101.0615	6
105.0719	4
131.0867	6
173.1322	10
175.1468	5
177.163	7
183.0987	1
187.1143	38
189.1267	3
195.111	8
199.1126	9
201.1641	4
203.1245	22
205.1238	12
213.1296	6
217.1234	21
219.1397	6
223.1433	2
237.183	3
255.2091	16
256.2119	2
257.1906	102
258.1933	16
259.2027	13
263.2014	40
265.2129	32
273.2223	8
275.2001	88
276.2028	10
283.2056	161
284.2079	33
291.2311	13
293.2112	8
299.1991	14
301.2169	999
302.2185	222
303.2282	82
304.2353	11
317.2129	33
318.1273	25
319.227	448
320.2299	85
321.2347	18
331.2199	2
335.221	29
336.2246	5
337.2373	74
338.2415	16
347.1313	25
348.1344	5
