Mass spectrum: Lipoic acid; LC-ESI-QTOF; MS2; CE: 20 / 50;  [M-H]-
Name: Lipoic acid
Class: Lipoic acids and derivatives
Formula: C8H14O2S2
Exact mass: 206.04352
SMILES: OC(=O)CCCC[C@@H]1CCSS1
InChI: InChI=1S/C8H14O2S2/c9-8(10)4-2-1-3-7-5-6-11-12-7/h7H,1-6H2,(H,9,10)/t7-/m1/s1
Instrument: impact II
Instrument type: LC-ESI-QTOF
Ms type: MS2
Ion mode: NEGATIVE
Ionization: ESI
Collision energy: 20 / 50
Column name: Acquity CSHC18
Retention time: 1.712 min
Base peak: 205.03610
Precursor m/z: 205.03610
Precursor type: [M-H]-
m/z	relative intensity
32.9808	128
63.9445	542
64.9523	654
93.0707	489
127.0582	521
139.0761	165
159.0495	223
171.0488	999
