Mass spectrum: Propyl gallate; LC-ESI-ITFT; MS2; CE: 60;  [M-H]-
Name: Propyl gallate
Class: Benzenoids; Benzene and substituted derivatives; Benzoic acids and derivatives
Formula: C10H12O5
Exact mass: 212.06847
SMILES: CCCOC(=O)C1=CC(O)=C(O)C(O)=C1
InChI: InChI=1S/C10H12O5/c1-2-3-15-10(14)6-4-7(11)9(13)8(12)5-6/h4-5,11-13H,2-3H2,1H3
Instrument: Thermo Scientific Q-Exactive Focus
Instrument type: LC-ESI-ITFT
Ms type: MS2
Ion mode: NEGATIVE
Ionization: ESI
Collision energy: 60
Column name: Acquity CSHC18
Retention time: 2.027 min
Base peak: 211.06120
Precursor m/z: 211.06120
Precursor type: [M-H]-
m/z	relative intensity
53.0021	130
57.0334	163
65.0021	999
67.0177	165
92.5153	296
95.0126	709
110.4298	118
120.5808	131
210.575	118
222.4138	119
