Mass spectrum: N-Benzyloxycarbonyl-22,26-epimino-23beta-methoxy-16beta,23-epoxy-5alpha,22alphaH,25alphaH-cholestan-3-on; APCI-ITFT; MS2; CE: HCD 90;  [M-H]-
Name: N-Benzyloxycarbonyl-22,26-epimino-23beta-methoxy-16beta,23-epoxy-5alpha,22alphaH,25alphaH-cholestan-3-on
Class: NA
Formula: C36H51NO5
Exact mass: 577.37672
SMILES: O=C1CC[C@@]2(C)[C@](CC[C@]3([H])[C@@]([H])2CC[C@@]4(C)[C@]([H])3C[C@]([H])(O[C@](C[C@@H](C)CN6C(OCC7=CC=CC=C7)=O)(OC)[C@@]6([H])[C@H]5C)[C@]54[H])([H])C1
InChI: InChI=1S/C36H51NO5/c1-22-19-36(40-5)32(37(20-22)33(39)41-21-24-9-7-6-8-10-24)23(2)31-30(42-36)18-29-27-12-11-25-17-26(38)13-15-34(25,3)28(27)14-16-35(29,31)4/h6-10,22-23,25,27-32H,11-21H2,1-5H3/t22-,23+,25+,27-,28+,29+,30+,31+,32-,34+,35+,36+/m1/s1
Instrument: Orbitrap Elite
Instrument type: APCI-ITFT
Ms type: MS2
Ion mode: NEGATIVE
Ionization: APCI
Collision energy: HCD 90
Column name: Acquity CSHC18
Retention time: 0.168 min
Base peak: 576.36880
Precursor m/z: 576.36880
Precursor type: [M-H]-
Precursor intensity: 195157.6
m/z	relative intensity
96.9599	146
378.6616	76
546.319	327
547.3243	110
574.358	277
575.3362	181
576.3705	999
