Mass spectrum: AL 8810 isopropyl ester; ESI-TOF; MS2; CE: 0.6458333;  [M+H]+
Name: AL 8810 isopropyl ester
Class: NA
Formula: C27H37FO4
Exact mass: 444.26759
SMILES: CC(C)OC(CCC/C=C\C[C@@H]1[C@@H](/C=C/[C@H](O)C2CC3=CC=CC=C3C2)[C@@H](F)C[C@@H]1O)=O
InChI: InChI=1S/C27H37FO4/c1-18(2)32-27(31)12-6-4-3-5-11-23-22(24(28)17-26(23)30)13-14-25(29)21-15-19-9-7-8-10-20(19)16-21/h3,5,7-10,13-14,18,21-26,29-30H,4,6,11-12,15-17H2,1-2H3/b5-3-,14-13+/t22-,23-,24+,25+,26+/m1/s1
Instrument: waters xevo g2 TOF
Instrument type: ESI-TOF
Ms type: MS2
Ion mode: POSITIVE
Ionization: ESI
Collision energy: 0.6458333
Column name: Acquity CSHC18
Retention time: 4.644 min
Base peak: 445.27559
Precursor m/z: 445.27559
Precursor type: [M+H]+
m/z	relative intensity
81.0703	25
93.0705	38
97.0681	9
105.0713	79
107.0867	10
111.0817	17
116.0623	13
117.0712	323
119.0874	38
121.0645	12
128.0626	67
129.071	614
130.0736	67
131.086	211
133.1025	28
141.0712	150
142.0762	26
143.0865	265
144.0896	15
145.103	122
146.1038	8
147.0813	28
153.0698	32
154.0767	16
155.0871	306
156.09	39
157.1014	71
165.07	30
167.0851	123
169.1029	184
170.1053	17
171.1173	265
172.1213	29
178.0788	17
179.0865	142
180.0934	20
181.1015	180
182.1052	16
183.1174	36
185.0622	47
187.1124	122
188.117	12
191.0854	70
195.1169	118
197.0946	17
199.0773	98
200.1144	20
201.1263	10
205.1104	62
207.1174	55
213.1269	212
217.1209	125
219.1166	260
220.1218	57
221.1315	53
225.126	7
227.0573	42
229.1008	32
231.1352	145
232.1251	23
233.133	105
237.1275	23
243.0674	23
245.1324	92
246.1383	15
247.0394	11
249.1277	26
258.136	9
259.1578	26
261.1623	22
265.1366	13
269.1346	36
273.1836	36
283.1482	65
284.1561	9
285.1616	35
287.1815	41
296.1535	7
301.1946	22
311.139	123
312.1903	50
319.0617	7
329.191	156
330.1903	34
331.1828	38
332.1889	9
346.1884	24
347.2009	404
348.2045	96
349.1978	62
353.2214	15
361.102	9
363.2312	5
365.2117	28
367.2067	81
368.2116	16
371.2332	17
385.1834	77
387.1816	19
389.2476	201
390.2517	53
393.1062	8
401.1209	53
402.1259	14
403.1588	308
404.1628	57
409.2532	29
419.1319	76
421.1691	277
423.1749	16
425.2062	86
427.1929	31
429.2521	6
431.2816	36
437.1363	35
438.1454	14
445.1971	19
447.251	999
