Mass spectrum: Alpha-Hydroxyhippuric acid; ESI-TOF; MS2; CE: 0.6458333;  [M+H]+
Name: Alpha-Hydroxyhippuric acid
Class: NA
Formula: C9H9NO4
Exact mass: 195.05316
SMILES: OC(NC(=O)C1=CC=CC=C1)C(O)=O
InChI: InChI=1S/C9H9NO4/c11-7(10-8(12)9(13)14)6-4-2-1-3-5-6/h1-5,8,12H,(H,10,11)(H,13,14)
Instrument: waters xevo g2 TOF
Instrument type: ESI-TOF
Ms type: MS2
Ion mode: POSITIVE
Ionization: ESI
Collision energy: 0.6458333
Column name: Acquity CSHC18
Retention time: 1.871 min
Base peak: 196.06116
Precursor m/z: 196.06116
Precursor type: [M+H]+
m/z	relative intensity
79.0546	13
93.058	45
99.9482	11
105.0346	436
128.0333	2
130.9802	2
133.0556	45
133.9818	36
148.9932	91
160.0078	999
160.9923	19
167.9899	4
175.9806	164
176.9884	230
178.0191	128
180.0293	35
188.9876	22
195.9889	9
203.9739	7
204.9839	17
206.0009	9
217.05	19
221.9862	61
234.0087	75
261.1318	15
281.062	17
297.0331	71
298.039	8
321.0288	3
326.0341	5
355.0615	9
361.9273	14
424.9532	32
425.9554	7
452.9525	11
