Mass spectrum: GLUTARYLCARNITINE; LC-ESI-QFT; MS2; CE: 30eV;  [M-H]-
Name: GLUTARYLCARNITINE
Class: NA
Formula: C12H21NO6
Exact mass: 275.13689
SMILES: C[N+](C)(C)C[C@H](CC([O-])=O)OC(=O)CCCC(O)=O
InChI: InChI=1S/C12H21NO6/c1-13(2,3)8-9(7-11(16)17)19-12(18)6-4-5-10(14)15/h9H,4-8H2,1-3H3,(H-,14,15,16,17)/t9-/m0/s1
Instrument: Q-Exactive Orbitrap, Thermo Scientfic; Ultimate 3000 HPLC, Thermo Scientfic
Instrument type: LC-ESI-QFT
Ms type: MS2
Ion mode: NEGATIVE
Ionization: ESI
Collision energy: 30eV
Column name: Acquity CSHC18
Retention time: 1.056 min
Base peak: 274.1296
Precursor m/z: 274.1296
Precursor type: [M-H]-
Precursor intensity: 122
m/z	relative intensity
52.7406	3
57.033	3
65.6776	3
68.2306	3
69.0312	5
69.0329	143
69.1317	3
73.0277	5
83.0121	4
85.197	3
86.1371	3
86.3834	4
87.0434	632
88.0468	6
91.0491	3
101.0225	5
113.0227	259
114.0261	5
123.8527	4
131.0333	999
131.586	3
132.0368	23
144.5154	3
145.049	21
146.0806	4
160.0831	3
