Mass spectrum: N-ACETYLASPARTATE; LC-ESI-QTOF; MS2; CE: 10;  [M-H]-
Name: N-ACETYLASPARTATE
Class: NA
Formula: C6H9NO5
Exact mass: 175.04807
SMILES: CC(=O)N[C@@H](CC(O)=O)C(O)=O
InChI: InChI=1S/C6H9NO5/c1-3(8)7-4(6(11)12)2-5(9)10/h4H,2H2,1H3,(H,7,8)(H,9,10)(H,11,12)/t4-/m0/s1
Instrument: Agilent 6530Â Q-TOF LC/MS
Instrument type: LC-ESI-QTOF
Ms type: MS2
Ion mode: NEGATIVE
Ionization: ESI
Collision energy: 10
Column name: NA
Retention time: 0.200 min
Base peak: 174.03950
Precursor m/z: 174.03950
Precursor type: [M-H]-
Precursor intensity: 172
m/z	relative intensity
42.0058	187
58.0481	193
59.0221	229
71.0154	263
88.0677	274
114.0257	329
115.0045	431
130.0608	761
174.0595	999
