Mass spectrum: Putative_Betavulgaroside III; LC-ESI-QTOF; MS2; CE: 20-40eV;  [M+NH4]+
Name: Putative_Betavulgaroside III
Class: Triterpene saponins
Formula: C47H72O20
Exact mass: 956.4617
SMILES: CC1(C)CCC2(CCC3(C)C(=CCC4(C5(C)CCC(C(C)(C)C5(CCC43C)[H])(OC6(C(C(C(C(C(=O)O)(O6)[H])(O)[H])(OC(C(C(=O)O)(O)[H])(OCC(=O)O)[H])[H])(O)[H])[H])[H])[H])C2(C1)[H])C(=O)OC7(C(C(C(C(CO)(O7)[H])(O)[H])(O)[H])(O)[H])[H]
InChI: InChI=1S/C47H72O20/c1-42(2)14-16-47(41(61)67-39-30(53)29(52)28(51)23(19-48)63-39)17-15-45(6)21(22(47)18-42)8-9-25-44(5)12-11-26(43(3,4)24(44)10-13-46(25,45)7)64-40-32(55)34(31(54)35(66-40)37(59)60)65-38(33(56)36(57)58)62-20-27(49)50/h8,22-26,28-35,38-40,48,51-56H,9-20H2,1-7H3,(H,49,50)(H,57,58)(H,59,60)
Instrument: Impact II, Bruker; Dionex 3000, Thermo Scientific
Instrument type: LC-ESI-QTOF
Ms type: MS2
Ion mode: POSITIVE
Ionization: ESI
Collision energy: 20-40eV
Column name: Acquity CSHC18
Retention time: 13.735 min
Base peak: 974.4932
Precursor m/z: 974.4932
Precursor type: [M+NH4]+
Precursor intensity: 678729.9
m/z	relative intensity
105.0433	277
163.0427	365
207.1723	404
219.1753	436
221.1727	445
229.1772	491
231.1929	953
439.4799	999
