Mass spectrum: Curcumenol; LC-ESI-QTOF; MS2; CE: 20-40eV;  [M+H]+
Name: Curcumenol
Class: Terpenes
Formula: C15H22O2
Exact mass: 234.1620
SMILES: CC(C)=C1CC23C(C)(CCC3(C(C)=CC1(O)O2)[H])[H]
InChI: InChI=1S/C15H22O2/c1-9(2)13-8-14-11(4)5-6-12(14)10(3)7-15(13,16)17-14/h7,11-12,16H,5-6,8H2,1-4H3
Instrument: Impact II, Bruker; Dionex 3000, Thermo Scientific
Instrument type: LC-ESI-QTOF
Ms type: MS2
Ion mode: POSITIVE
Ionization: ESI
Collision energy: 20-40eV
Column name: Acquity CSHC18
Retention time: 12.059 min
Base peak: 235.1694
Precursor m/z: 235.1694
Precursor type: [M+H]+
Precursor intensity: 3500.62
m/z	relative intensity
103.0544	224
105.0694	999
106.0743	180
107.0491	180
107.085	389
108.0824	149
115.053	312
119.086	857
120.0875	273
128.0617	242
129.0691	180
131.0842	178
133.1018	451
135.0812	149
145.1044	180
147.1163	490
160.1202	299
161.0975	183
167.0837	136
175.1135	265
175.1455	211
191.1466	149
217.1569	573
