Mass spectrum: 1,2-dipalmitoleoyl-sn-glycero-3-phosphocholine; ESI-TOF; MS2; CE: 0.6458333;  [M+H]+
Name: 1,2-dipalmitoleoyl-sn-glycero-3-phosphocholine
Class: NA
Formula: C40H76NO8P
Exact mass: 729.53086
SMILES: [H]C(=C([H])C([H])([H])C([H])([H])C([H])([H])C([H])([H])C([H])([H])C([H])([H])C([H])([H])C(=O)OC([H])([H])C([H])(OC(=O)C([H])([H])C([H])([H])C([H])([H])C([H])([H])C([H])([H])C([H])([H])C([H])([H])C([H])=C([H])C([H])([H])C([H])([H])C([H])([H])C([H])([H])C([H])([H])C([H])([H])[H])C([H])([H])OP(=O)([O-])OC([H])([H])C([H])([H])[N+](C([H])([H])[H])(C([H])([H])[H])C([H])([H])[H])C([H])([H])C([H])([H])C([H])([H])C([H])([H])C([H])([H])C([H])([H])[H]
InChI: InChI=1S/C40H76NO8P/c1-6-8-10-12-14-16-18-20-22-24-26-28-30-32-39(42)46-36-38(37-48-50(44,45)47-35-34-41(3,4)5)49-40(43)33-31-29-27-25-23-21-19-17-15-13-11-9-7-2/h16-19,38H,6-15,20-37H2,1-5H3
Instrument: waters xevo g2 TOF
Instrument type: ESI-TOF
Ms type: MS2
Ion mode: POSITIVE
Ionization: ESI
Collision energy: 0.6458333
Column name: Acquity CSHC18
Retention time: 10.413 min
Base peak: 730.53886
Precursor m/z: 730.53886
Precursor type: [M+H]+
m/z	relative intensity
86.097	17
104.1074	4
125	7
146.9818	1
163.0162	7
165.0947	1
184.0742	999
185.0773	61
186.0793	10
277.2024	2
293.1798	145
294.1839	26
297.173	1
307.1354	1
417.241	16
418.2449	2
476.315	224
477.3178	27
478.3202	10
494.3254	3
547.4734	15
548.4792	7
569.4563	15
570.4597	4
622.4014	15
622.9031	11
623.4052	4
693.4489	15
694.4529	6
730.5404	418
731.544	197
