Mass spectrum: 3-NITRO-L-TYROSINE; LC-ESI-QTOF; MS2; CE: 20;  [M-H]-
Name: 3-NITRO-L-TYROSINE
Class: NA
Formula: C9H10N2O5
Exact mass: 226.05897
SMILES: C1=CC(=C(C=C1CC(C(=O)O)N)[N+](=O)[O-])O
InChI: InChI=1S/C9H10N2O5/c10-6(9(13)14)3-5-1-2-8(12)7(4-5)11(15)16/h1-2,4,6,12H,3,10H2,(H,13,14)
Instrument: Agilent 6530Â Q-TOF LC/MS
Instrument type: LC-ESI-QTOF
Ms type: MS2
Ion mode: NEGATIVE
Ionization: ESI
Collision energy: 20
Column name: NA
Retention time: 0.200 min
Base peak: 225.04825
Precursor m/z: 225.04825
Precursor type: [M-H]-
Precursor intensity: 135
m/z	relative intensity
41.0025	109
42.0018	113
46.0006	136
89.0382	147
105.0363	151
117.0356	152
118.049	157
119.0511	169
122.0322	177
133.0654	182
134.0529	183
135.0407	199
136.0555	205
138.019	393
148.0582	427
151.028	526
163.0702	704
164.0493	736
181.0569	999
