Mass spectrum: 13,14-dihydro-15(R)-Prostaglandin E1; ESI-TOF; MS2; CE: 6.0000000;  [M+H]+
Name: 13,14-dihydro-15(R)-Prostaglandin E1
Class: NA
Formula: C20H36O5
Exact mass: 356.25627
SMILES: CCCCC[C@@H](O)CC[C@H]1C(O)CC(=O)C1CCCCCCC(=O)O
InChI: InChI=1S/C20H36O5/c1-2-3-6-9-15(21)12-13-17-16(18(22)14-19(17)23)10-7-4-5-8-11-20(24)25/h15-17,19,21,23H,2-14H2,1H3,(H,24,25)/t15-,16?,17-,19?/m1/s1
Instrument: waters xevo g2 TOF
Instrument type: ESI-TOF
Ms type: MS2
Ion mode: POSITIVE
Ionization: ESI
Collision energy: 6.0000000
Column name: Acquity CSHC18
Retention time: 3.701 min
Base peak: 357.26427
Precursor m/z: 357.26427
Precursor type: [M+H]+
m/z	relative intensity
147.1186	2
149.0628	3
175.1495	1
187.1493	10
189.1152	7
257.2256	6
259.1329	1
275.2366	15
277.213	11
279.2286	7
285.2221	64
293.2479	18
303.2321	999
304.2365	225
305.2379	30
321.2432	756
322.2465	168
323.2466	20
335.2039	5
339.2536	118
340.2558	28
349.2217	23
349.7214	10
357.2614	15
358.2274	77
358.7234	8
359.2319	6
