Mass spectrum: L-Lactic acid; LC-ESI-ITFT; MS2; CE: 60;  [M-H]-
Name: L-Lactic acid
Class: Organic acids and derivatives; Hydroxy acids and derivatives; Alpha hydroxy acids and derivatives
Formula: C3H6O3
Exact mass: 90.03169
SMILES: C[C@H](O)C(O)=O
InChI: InChI=1S/C3H6O3/c1-2(4)3(5)6/h2,4H,1H3,(H,5,6)/t2-/m0/s1
Instrument: Thermo Scientific Q-Exactive Focus
Instrument type: LC-ESI-ITFT
Ms type: MS2
Ion mode: NEGATIVE
Ionization: ESI
Collision energy: 60
Column name: Acquity CSHC18
Retention time: 1.743 min
Base peak: 89.02442
Precursor m/z: 89.02442
Precursor type: [M-H]-
m/z	relative intensity
66.8897	939
68.9595	863
75.0763	904
90.338	856
94.2166	877
96.0014	911
99.5265	946
103.1455	999
105.8108	899
108.9309	888
