Mass spectrum: 2,3-DIHYDROXYBENZOATE; LC-ESI-QFT; MS2; CE: 30eV;  [M+H]+
Name: 2,3-DIHYDROXYBENZOATE
Class: NA
Formula: C7H6O4
Exact mass: 154.02661
SMILES: OC(=O)C1=CC=CC(O)=C1O
InChI: InChI=1S/C7H6O4/c8-5-3-1-2-4(6(5)9)7(10)11/h1-3,8-9H,(H,10,11)
Instrument: Q-Exactive Orbitrap, Thermo Scientfic; Ultimate 3000 HPLC, Thermo Scientfic
Instrument type: LC-ESI-QFT
Ms type: MS2
Ion mode: POSITIVE
Ionization: ESI
Collision energy: 30eV
Column name: Acquity CSHC18
Retention time: 3.836 min
Base peak: 155.0339
Precursor m/z: 155.0339
Precursor type: [M+H]+
Precursor intensity: 118
m/z	relative intensity
51.0925	1
51.4645	1
51.9408	16
52.064	1
52.5096	1
52.8863	2
53.0393	3
53.5421	1
53.6665	1
55.0186	1
55.9352	41
67.0549	12
67.9355	4
68.9433	2
69.0704	2
71.2599	2
73.9455	2
81.0341	4
81.0705	8
82.8817	1
83.9303	3
83.9537	2
85.9461	10
91.9562	2
91.959	2
92.9671	2
93.0705	2
95.0496	3
95.086	14
96.9614	3
99.0813	2
103.9564	10
109.0289	10
109.0651	5
109.1016	21
110.9776	4
111.0445	9
111.0811	3
113.9402	2
113.9641	3
114.9719	124
114.976	4
115.1247	2
119.9511	2
120.8551	2
126.9722	17
127.0394	3
127.9799	4
128.373	2
128.951	13
131.9512	21
131.9743	3
131.987	67
132.9588	8
134.0265	2
137.0235	999
137.0964	4
138.0269	38
141.9591	1
142.9671	2
144.9827	10
145.9902	2
146.9615	12
149.9616	33
150.9691	2
154.9074	11
155.034	101
155.0702	8
155.1068	10
155.1544	12
155.9749	13
156.0368	2
156.0423	17
167.9723	10
