Mass spectrum: 3-METHYL-2-OXINDOLE; LC-ESI-QFT; MS2; CE: 30eV;  [M+H]+
Name: 3-METHYL-2-OXINDOLE
Class: NA
Formula: C9H9NO
Exact mass: 147.06841
SMILES: CC1C2=CC=CC=C2NC1=O
InChI: InChI=1S/C9H9NO/c1-6-7-4-2-3-5-8(7)10-9(6)11/h2-6H,1H3,(H,10,11)
Instrument: Q-Exactive Orbitrap, Thermo Scientfic; Ultimate 3000 HPLC, Thermo Scientfic
Instrument type: LC-ESI-QFT
Ms type: MS2
Ion mode: POSITIVE
Ionization: ESI
Collision energy: 30eV
Column name: Acquity CSHC18
Retention time: 7.420 min
Base peak: 148.0757
Precursor m/z: 148.0757
Precursor type: [M+H]+
Precursor intensity: 179
m/z	relative intensity
52.5424	1
52.7513	1
56.6309	1
60.4927	1
61.7424	1
69.034	1
71.8503	1
75.098	1
79.0546	1
94.8267	1
103.0546	16
105.0338	12
107.4734	1
120.0809	37
121.0283	1
123.9645	1
129.7031	1
130.0652	67
131.0494	1
133.0523	25
148.0756	999
149.0233	19
149.0789	37
163.2841	1
