Mass spectrum: Myricetin 3-O-galactoside; LC-ESI-QTOF; MS2; CE: 50eV;  [M-H]-
Name: Myricetin 3-O-galactoside
Class: Flavonol
Formula: C21H20O13
Exact mass: 480.0904
SMILES: C1=C(C=C(C(=C1O)O)O)C2=C(C(=O)C3=C(C=C(C=C3O2)O)O)OC4C(C(C(C(O4)CO)O)O)O
InChI: InChI=1S/C21H20O13/c22-5-12-15(28)17(30)18(31)21(33-12)34-20-16(29)13-8(24)3-7(23)4-11(13)32-19(20)6-1-9(25)14(27)10(26)2-6/h1-4,12,15,17-18,21-28,30-31H,5H2
Instrument: TIMS-TOF Pro, Bruker Daltonik; Elute UHPLC System, Bruker Daltonik
Instrument type: LC-ESI-QTOF
Ms type: MS2
Ion mode: NEGATIVE
Ionization: ESI
Collision energy: 50eV
Column name: Acquity CSHC18
Retention time: 4.768 min
Base peak: 479.0785
Precursor m/z: 479.0785
Precursor type: [M-H]-
Precursor intensity: 175755.8
m/z	relative intensity
64.8205	3
83.0132	7
104.0217	3
108.017	4
109.9957	3
111.5139	2
124.0139	10
125.0238	6
126.0184	2
127.0258	2
136.0095	6
137.0228	13
137.6917	1
151.0018	48
152.0091	11
153.0119	3
156.8803	3
162.1634	3
164.0119	10
169.419	2
175.0389	3
177.0199	3
178.6326	4
178.932	2
178.9974	46
179.162	5
179.7196	4
180.0029	6
186.0394	2
189.0538	5
198.4688	3
204.0383	8
214.0316	6
215.0431	3
224.5236	2
227.6341	3
228.1315	3
229.5865	3
230.4881	2
231.0606	2
232.6067	3
233.6684	3
234.5103	4
236.885	4
237.2224	4
238.1316	2
240.104	4
242.0209	8
243.0252	3
245.035	2
246.8649	3
254.9971	4
257.0431	3
259.0288	4
261.5268	6
267.1898	2
268.4257	3
271.023	12
271.6619	3
273.0384	5
278.2793	2
285.6714	5
287.0108	4
287.9492	3
290.7816	3
315.0129	2
316.0184	385
316.1754	2
316.2567	4
316.3408	2
316.7448	2
317.0255	108
317.4804	3
317.7783	1
318.0285	16
322.3508	2
357.0199	2
461.0601	3
478.0644	14
478.5437	3
478.6196	3
478.8197	6
478.8887	4
479.0086	999
479.2131	2
479.3149	5
479.4254	7
479.548	11
