Mass spectrum: CYCLIC GMP; LC-ESI-QFT; MS2; CE: 30eV;  [M-H]-
Name: CYCLIC GMP
Class: NA
Formula: C10H12N5O7P
Exact mass: 345.04743
SMILES: NC1=NC2=C(N=CN2[C@@H]2O[C@@H]3COP(O)(=O)O[C@H]3[C@H]2O)C(=O)N1
InChI: InChI=1S/C10H12N5O7P/c11-10-13-7-4(8(17)14-10)12-2-15(7)9-5(16)6-3(21-9)1-20-23(18,19)22-6/h2-3,5-6,9,16H,1H2,(H,18,19)(H3,11,13,14,17)/t3-,5-,6-,9-/m1/s1
Instrument: Q-Exactive Orbitrap, Thermo Scientfic; Ultimate 3000 HPLC, Thermo Scientfic
Instrument type: LC-ESI-QFT
Ms type: MS2
Ion mode: NEGATIVE
Ionization: ESI
Collision energy: 30eV
Column name: Acquity CSHC18
Retention time: 1.089 min
Base peak: 344.0402
Precursor m/z: 344.0402
Precursor type: [M-H]-
Precursor intensity: 115
m/z	relative intensity
50.0746	1
52.8289	1
62.9625	6
78.9575	340
80.8638	1
80.9731	6
87.6044	1
91.7951	1
96.9681	59
107.0348	3
108.0189	1
116.8221	1
120.9684	1
126.0295	1
126.5649	1
133.0141	53
134.0172	1
134.9838	12
138.491	1
143.9443	1
150.0408	999
150.9789	1
151.0378	8
151.0442	28
154.5528	1
160.0509	1
162.9794	1
174.041	1
174.9794	5
183.6614	1
192.9897	19
197.5125	1
204.0408	2
217.7745	1
224.7782	1
228.0524	3
246.0626	6
310.0622	1
327.0139	3
331.5027	1
344.0401	680
345.0437	49
