Mass spectrum: Quercetin 5,3'-dimethyl ether-2; LC-ESI-QTOF; MS2; CE: 50eV;  [M+H]+
Name: Quercetin 5,3'-dimethyl ether-2
Class: Flavonol
Formula: C17H14O7
Exact mass: 330.0740
SMILES: COC1=CC(=CC2=C1C(=O)C(=C(O2)C3=CC(=C(C=C3)O)OC)O)O
InChI: InChI=1S/C17H14O7/c1-22-11-5-8(3-4-10(11)19)17-16(21)15(20)14-12(23-2)6-9(18)7-13(14)24-17/h3-7,18-19,21H,1-2H3
Instrument: TIMS-TOF Pro, Bruker Daltonik; Elute UHPLC System, Bruker Daltonik
Instrument type: LC-ESI-QTOF
Ms type: MS2
Ion mode: POSITIVE
Ionization: ESI
Collision energy: 50eV
Column name: Acquity CSHC18
Retention time: 6.968 min
Base peak: 331.0793
Precursor m/z: 331.0793
Precursor type: [M+H]+
Precursor intensity: 69785.69
m/z	relative intensity
48.6739	2
93.0325	2
105.0266	5
115.0517	3
123.008	7
137.0199	15
149.0243	3
150.0293	6
157.0632	2
161.0571	2
171.0103	3
200.0419	3
208.3874	2
217.0461	3
227.0223	4
231.0587	2
241.0453	2
245.0449	8
258.018	3
267.0436	4
272.9956	4
273.0376	27
274.04	6
278.3194	5
288.0538	7
300.0103	1
300.024	4
315.0507	16
316.0568	69
317.0618	7
325.2133	2
331.0533	21
331.0793	999
