Mass spectrum: D-mannitol; LC-ESI-QTOF; MS2; CE: 15.00;  [M-H]-
Name: D-mannitol
Class: NA
Formula: C6H14O6
Exact mass: 182.0790
SMILES: C(C(C(C(C(CO)O)O)O)O)O
InChI: InChI=1S/C6H14O6/c7-1-3(9)5(11)6(12)4(10)2-8/h3-12H,1-2H2
Instrument: Bruker MicrOTOF-Q
Instrument type: LC-ESI-QTOF
Ms type: MS2
Ion mode: NEGATIVE
Ionization: ESI
Collision energy: 15.00
Column name: Acquity CSHC18
Retention time: NA
Base peak: 181.0718
Precursor m/z: 181.0718
Precursor type: [M-H]-
m/z	relative intensity
46.7415	549
51.0385	624
55.753	774
73.5053	674
74.9707	674
77.3598	599
101.6346	724
114.7663	524
122.6158	649
136.5371	824
159.8287	549
161.9919	499
193.0039	624
223.1573	649
247.616	499
264.7719	499
284.0517	499
289.9958	624
301.1591	624
304.8996	849
348.6107	774
377.4725	799
378.4689	524
442.7789	524
449.4009	624
463.7249	674
486.7205	499
527.6428	649
528.5141	549
548.925	849
598.32	549
608.1618	624
659.9982	999
672.8463	724
689.2901	599
695.8388	599
726.4057	524
737.9237	749
748.6354	624
757.4954	649
908.8281	774
957.5884	624
958.3357	999
973.4371	849
991.7054	949
