Mass spectrum: Acetylcholine; ESI-TOF; MS2; CE: 6.0000000;  [M+H]+
Name: Acetylcholine
Class: NA
Formula: [C7H16NO2]+
Exact mass: 146.11756
SMILES: CC(=O)OCC[N+](C)(C)C
InChI: InChI=1S/C7H16NO2/c1-7(9)10-6-5-8(2,3)4/h5-6H2,1-4H3/q+1
Instrument: waters xevo g2 TOF
Instrument type: ESI-TOF
Ms type: MS2
Ion mode: POSITIVE
Ionization: ESI
Collision energy: 6.0000000
Column name: Acquity CSHC18
Retention time: 0.526 min
Base peak: 147.12610
Precursor m/z: 147.12610
Precursor type: [M+H]+
m/z	relative intensity
87.0447	41
88.0479	3
96.9614	16
104.1074	89
105.1108	5
113.9641	27
135.9932	2
137.988	50
146.118	999
147.1215	168
148.1249	18
174.9564	2
190.1443	29
191.1465	2
236.94	2
236.9412	2
327.2051	3
337.2331	5
