Mass spectrum: khellin; LC-ESI-ITFT; MS2; CE: 0.3;  [M+H]+
Name: khellin
Class: furanochromones
Formula: C14H12O5
Exact mass: 260.0685
SMILES: CC1=CC(=O)C2=C(C3=C(C(=C2O1)OC)OC=C3)OC
InChI: InChI=1S/C14H12O5/c1-7-6-9(15)10-11(16-2)8-4-5-18-12(8)14(17-3)13(10)19-7/h4-6H,1-3H3
Instrument: LTQ-Orbitrap XL hybrid mass spectrometer (Thermo Scientific)
Instrument type: LC-ESI-ITFT
Ms type: MS2
Ion mode: POSITIVE
Ionization: ESI
Collision energy: 0.3
Column name: Acquity CSHC18
Retention time: 8.610 min
Base peak: 261.0759
Precursor m/z: 261.0759
Precursor type: [M+H]+
Precursor intensity: 6298740
m/z	relative intensity
63.3493	1
73.4464	1
81.0311	1
81.5172	1
90.2558	1
166.9838	4
197.5231	1
230.0574	13
231.0289	34
231.0658	2
232.0693	2
233.0793	1
243.8263	1
244.3819	7
244.9372	1
245.0414	2
245.1551	1
245.5689	1
245.5793	1
245.6619	1
245.7665	2
245.776	1
245.8713	3
245.881	2
245.8944	3
245.9055	3
245.9173	3
245.9287	3
245.9411	4
245.9516	3
245.9641	5
245.9755	5
245.9873	6
245.9989	6
246.0103	6
246.0524	999
246.0925	5
246.1036	6
246.1155	6
246.1273	6
246.1383	4
246.1508	5
246.1618	3
246.1735	3
246.1976	3
246.2078	2
246.2211	3
246.2317	2
246.244	2
246.2548	1
246.268	2
246.2766	1
246.3265	1
246.3844	2
246.3945	1
246.4193	1
246.4297	1
246.4443	1
246.4544	1
246.4652	1
247.1773	1
247.74	8
248.3081	2
259.2494	2
261.0759	299
