Mass spectrum: (+)-15-epi Cloprostenol; ESI-TOF; MS2; CE: 0.6458333;  [M+H]+
Name: (+)-15-epi Cloprostenol
Class: NA
Formula: C22H29ClO6
Exact mass: 424.16527
SMILES: OC(=O)CCC/C=C\CC1C(O)CC(O)[C@@H]1\C=C\[C@H](O)COc1cccc(Cl)c1
InChI: InChI=1S/C22H29ClO6/c23-15-6-5-7-17(12-15)29-14-16(24)10-11-19-18(20(25)13-21(19)26)8-3-1-2-4-9-22(27)28/h1,3,5-7,10-12,16,18-21,24-26H,2,4,8-9,13-14H2,(H,27,28)/b3-1-,11-10+/t16-,18?,19+,20?,21?/m0/s1
Instrument: waters xevo g2 TOF
Instrument type: ESI-TOF
Ms type: MS2
Ion mode: POSITIVE
Ionization: ESI
Collision energy: 0.6458333
Column name: Acquity CSHC18
Retention time: 3.489 min
Base peak: 425.17327
Precursor m/z: 425.17327
Precursor type: [M+H]+
m/z	relative intensity
83.0496	738
91.0534	998
93.07	178
107.0852	105
115.0547	157
116.0628	84
117.0709	999
119.0859	295
128.0209	148
129.0702	842
131.0854	626
133.0839	153
135.0789	91
141.0404	347
143.0859	594
145.1016	304
147.1161	115
153.0708	222
154.0774	116
155.0862	832
157.1004	338
159.0798	15
161.0962	247
169.0989	217
171.1175	144
177.0926	15
179.1052	15
181.1023	381
183.1168	552
187.1138	141
189.1276	96
192.0939	102
195.1023	15
198.1388	44
199.1096	90
201.1284	15
205.0858	15
207.117	325
214.0537	15
215.0976	15
217.1217	15
219.1364	44
223.0592	15
224.0565	15
225.1285	366
233.1552	15
243.1384	390
244.1414	15
248.0486	103
261.1061	195
262.1522	15
275.1652	15
277.0547	195
279.1605	325
280.1636	38
293.1737	15
299.0941	107
353.1297	15
371.1397	74
372.1454	15
373.1372	15
388.0564	104
389.1533	15
390.1064	15
406.0708	86
411.1635	15
418.0554	85
