Mass spectrum: Isorhamnetin 3-vicianoside; LC-ESI-QTOF; MS2; CE: 20-40eV;  [M+H]+
Name: Isorhamnetin 3-vicianoside
Class: Flavonoid O-glycosides
Formula: C27H30O16
Exact mass: 610.1534
SMILES: COC=1C=C(C=CC1O)C2=C(C(C3=C(C=C(C=C3O2)O)O)=O)OC4(C(C(C(C(COC5(C(C(C(CO5)(O)[H])(O)[H])(O)[H])[H])(O4)[H])(O)[H])(O)[H])(O)[H])[H]
InChI: InChI=1S/C27H30O16/c1-38-14-4-9(2-3-11(14)29)24-25(20(34)17-12(30)5-10(28)6-15(17)41-24)43-27-23(37)21(35)19(33)16(42-27)8-40-26-22(36)18(32)13(31)7-39-26/h2-6,13,16,18-19,21-23,26-33,35-37H,7-8H2,1H3
Instrument: Impact II, Bruker; Dionex 3000, Thermo Scientific
Instrument type: LC-ESI-QTOF
Ms type: MS2
Ion mode: POSITIVE
Ionization: ESI
Collision energy: 20-40eV
Column name: Acquity CSHC18
Retention time: 4.861 min
Base peak: 611.1608
Precursor m/z: 611.1608
Precursor type: [M+H]+
Precursor intensity: 20853.75
m/z	relative intensity
145.0393	272
317.3107	999
