Mass spectrum: GLYCOCHENODEOXYCHOLATE; LC-ESI-QTOF; MS2; CE: 20;  [M+H]+
Name: GLYCOCHENODEOXYCHOLATE
Class: NA
Formula: C26H43NO5
Exact mass: 449.31412
SMILES: [H][C@@]1(CC[C@@]2([H])[C@]3([H])[C@H](O)C[C@]4([H])C[C@H](O)CC[C@]4(C)[C@@]3([H])CC[C@]12C)[C@H](C)CCC(=O)NCC(O)=O
InChI: InChI=1S/C26H43NO5/c1-15(4-7-22(30)27-14-23(31)32)18-5-6-19-24-20(9-11-26(18,19)3)25(2)10-8-17(28)12-16(25)13-21(24)29/h15-21,24,28-29H,4-14H2,1-3H3,(H,27,30)(H,31,32)/t15-,16+,17-,18-,19+,20+,21-,24+,25+,26-/m1/s1
Instrument: Agilent 6530Â Q-TOF LC/MS
Instrument type: LC-ESI-QTOF
Ms type: MS2
Ion mode: POSITIVE
Ionization: ESI
Collision energy: 20
Column name: NA
Retention time: 0.200 min
Base peak: 450.32215
Precursor m/z: 450.32215
Precursor type: [M+H]+
Precursor intensity: 181.5
m/z	relative intensity
41.0381	135
57.07	139
76.0515	144
81.08	148
83.079	151
85.0785	152
105.0704	158
107.098	164
109.1061	166
114.0518	170
119.0821	171
133.0997	174
147.1175	175
149.1368	185
151.1136	189
156.0711	189
158.0968	193
159.1253	203
161.1415	215
175.1584	215
177.1323	223
185.1305	229
199.1497	251
201.1687	263
203.1651	275
211.1538	303
213.1656	315
215.1954	316
252.1595	377
264.1619	381
318.2199	455
321.279	500
339.2964	506
414.3306	999
