Mass spectrum: HYPOXANTHINE; LC-ESI-QFT; MS2; CE: 30eV;  [M+H]+
Name: HYPOXANTHINE
Class: NA
Formula: C5H4N4O
Exact mass: 136.03851
SMILES: OC1=NC=NC2=C1NC=N2
InChI: InChI=1S/C5H4N4O/c10-5-3-4(7-1-6-3)8-2-9-5/h1-2H,(H2,6,7,8,9,10)
Instrument: Q-Exactive Orbitrap, Thermo Scientfic; Ultimate 3000 HPLC, Thermo Scientfic
Instrument type: LC-ESI-QFT
Ms type: MS2
Ion mode: POSITIVE
Ionization: ESI
Collision energy: 30eV
Column name: Acquity CSHC18
Retention time: 0.809 min
Base peak: 137.0458
Precursor m/z: 137.0458
Precursor type: [M+H]+
Precursor intensity: 130
m/z	relative intensity
55.0298	30
55.3476	26
61.2519	28
68.8009	26
69.3322	25
70.2003	24
79.2573	26
82.0407	24
94.0405	439
109.5966	28
110.0354	524
112.0515	28
119.0357	612
121.9336	27
123.3152	31
128.6312	30
137.7948	31
138.0432	294
138.0494	999
138.0545	59
140.2892	30
151.3488	31
154.2482	27
