Mass spectrum: 2-Fluoro-2-Deoxy-D-Glucose (Fluorodeoxyglucose F18); ESI-TOF; MS2; CE: 6.0000000;  [M+H]+
Name: 2-Fluoro-2-Deoxy-D-Glucose (Fluorodeoxyglucose F18)
Class: NA
Formula: C6H11FO5
Exact mass: 182.05905
SMILES: O=C[C@H](F)[C@@H](O)[C@H](O)[C@H](O)CO
InChI: InChI=1S/C6H11FO5/c7-3(1-8)5(11)6(12)4(10)2-9/h1,3-6,9-12H,2H2/t3-,4+,5+,6+/m0/s1
Instrument: waters xevo g2 TOF
Instrument type: ESI-TOF
Ms type: MS2
Ion mode: POSITIVE
Ionization: ESI
Collision energy: 6.0000000
Column name: Acquity CSHC18
Retention time: 0.545 min
Base peak: 183.06705
Precursor m/z: 183.06705
Precursor type: [M+H]+
m/z	relative intensity
87.0251	177
98.9761	123
101.0407	170
109.0297	474
114.9713	147
127.0396	215
147.0467	999
158.9966	877
159.9451	485
165.0571	382
169.9655	266
174.9682	394
182.0338	555
184.9767	236
