Mass spectrum: 3-Sulfinoalanine; LC-ESI-ITFT; MS2; CE: 10;  [M+H]+
Name: 3-Sulfinoalanine
Class: Organic acids and derivatives; Carboxylic acids and derivatives; Amino acids, peptides, and analogues
Formula: C3H7NO4S
Exact mass: 153.00958
SMILES: C([C@@H](C(=O)O)N)S(=O)=O
InChI: InChI=1S/C3H7NO4S/c4-2(3(5)6)1-9(7)8/h2,9H,1,4H2,(H,5,6)/t2-/m0/s1
Instrument: Thermo Scientific Q-Exactive Focus
Instrument type: LC-ESI-ITFT
Ms type: MS2
Ion mode: POSITIVE
Ionization: ESI
Collision energy: 10
Column name: Acquity CSHC18
Retention time: 0.348 min
Base peak: 154.01685
Precursor m/z: 154.01685
Precursor type: [M+H]+
m/z	relative intensity
70.0292	5
71.037	8
73.0289	18
74.0241	999
82.7986	4
88.0396	213
89.0474	168
108.0115	154
136.0062	236
154.0167	194
