Mass spectrum: 7-Hydroxy-4'-methoxyisoflavone; LC-ESI-QTOF; MS2; CE: 15.00;  [M-H]-
Name: 7-Hydroxy-4'-methoxyisoflavone
Class: NA
Formula: C16H12O4
Exact mass: 268.0736
SMILES: COC1=CC=C(C=C1)C2=COC3=C(C2=O)C=CC(=C3)O
InChI: InChI=1S/C16H12O4/c1-19-12-5-2-10(3-6-12)14-9-20-15-8-11(17)4-7-13(15)16(14)18/h2-9,17H,1H3
Instrument: Bruker MicrOTOF-Q
Instrument type: LC-ESI-QTOF
Ms type: MS2
Ion mode: NEGATIVE
Ionization: ESI
Collision energy: 15.00
Column name: Acquity CSHC18
Retention time: NA
Base peak: 267.0663
Precursor m/z: 267.0663
Precursor type: [M-H]-
m/z	relative intensity
140.4842	26
262.7677	999
274.856	12
276.7653	10
277.7387	8
279.0089	8
279.9575	7
280.6291	6
281.5441	10
282.2252	9
283.1623	9
284.2354	7
284.7341	9
287.1406	8
288.4053	10
288.9714	12
289.9142	16
291.1207	13
292.2097	11
294.4441	9
296.5318	15
300.8557	8
304.4589	10
306.008	17
306.4232	9
311.8224	7
313.5946	12
316.5393	12
316.9943	10
322.8684	6
329.7716	17
334.4816	14
335.3984	12
338.533	9
339.5462	8
342.8911	6
346.5005	11
347.0083	17
348.0372	11
349.3299	7
350.4091	12
351.0884	10
352.7525	12
357.5943	8
359.9089	13
362.2162	11
363.4723	17
364.5123	11
365.6816	12
367.2146	17
369.9756	12
370.7043	6
372.9386	12
376.6175	9
377.4233	12
378.2092	12
381.1189	15
381.7324	13
383.0347	11
384.6662	13
385.3558	11
386.3781	12
388.9794	10
395.1079	13
395.6737	12
397.2659	10
399.7998	17
400.5184	15
401.2347	17
406.3781	11
408.0913	7
410.5316	15
412.3646	12
418.3729	8
421.4351	11
422.5746	15
427.925	13
428.7029	10
429.9915	11
441.7604	16
443.2325	9
449.4664	9
450.6919	14
452.9098	13
457.8605	13
472.2379	11
477.9355	12
478.841	11
480.7464	11
481.845	13
482.4239	13
485.345	10
490.3866	9
490.9092	6
499.8082	12
502.0081	12
511.4502	7
525.1577	10
528.0612	8
530.4983	13
531.7597	11
532.7174	8
539.2719	15
542.2002	10
551.6099	12
559.1733	7
569.222	13
571.7727	10
577.8859	7
580.4072	9
590.3436	10
593.0389	6
605.4317	15
620.8664	6
633.3883	6
639.4855	12
657.5849	10
684.2955	6
686.5319	12
691.1326	11
746.5814	6
747.241	12
776.2415	14
824.9808	7
825.9914	6
855.3271	8
975.9805	6
