Mass spectrum: ARABITOL; LC-ESI-QTOF; MS2; CE: 20;  [M-H]-
Name: ARABITOL
Class: NA
Formula: C5H12O5
Exact mass: 152.06847
SMILES: OC[C@H](O)C(O)[C@@H](O)CO
InChI: InChI=1S/C5H12O5/c6-1-3(8)5(10)4(9)2-7/h3-10H,1-2H2/t3-,4-/m0/s1
Instrument: Agilent 6530Â Q-TOF LC/MS
Instrument type: LC-ESI-QTOF
Ms type: MS2
Ion mode: NEGATIVE
Ionization: ESI
Collision energy: 20
Column name: NA
Retention time: 0.200 min
Base peak: 151.06326
Precursor m/z: 151.06326
Precursor type: [M-H]-
Precursor intensity: 121
m/z	relative intensity
41.0103	115
43.0268	162
55.0257	186
59.033	316
71.0298	329
83.0083	484
89.0224	875
101.0235	999
