Mass spectrum: 3-GlcA-28-Ara-Rha-Medicagenic acid; ESI-QTOF; MS2; CE: 30 eV;  [M-H]-
Name: 3-GlcA-28-Ara-Rha-Medicagenic acid
Class: Saponin
Formula: C47H72O20
Exact mass: 956.4617
SMILES: CC1(C(C(C(C(O1)(OC2(C(C(COC2(OC(C34CCC(C)(C)CC4(C5=CCC6(C7(C)CC(C(C(C)(C7(CCC6(C)C5(C)CC3)[H])C(=O)O)(OC8(C(C(C(C(C(=O)O)(O8)[H])(O)[H])(O)[H])(O)[H])[H])[H])(O)[H])[H])[H])=O)[H])(O)[H])(O)[H])[H])[H])(O)[H])(O)[H])(O)[H])[H]
InChI: InChI=1S/C47H72O20/c1-19-26(50)28(52)31(55)37(63-19)65-34-27(51)23(49)18-62-39(34)67-41(61)47-14-12-42(2,3)16-21(47)20-8-9-24-43(4)17-22(48)35(66-38-32(56)29(53)30(54)33(64-38)36(57)58)46(7,40(59)60)25(43)10-11-45(24,6)44(20,5)13-15-47/h8,19,21-35,37-39,48-56H,9-18H2,1-7H3,(H,57,58)(H,59,60)
Instrument: Synapt (HDMS 1st gen)
Instrument type: ESI-QTOF
Ms type: MS2
Ion mode: NEGATIVE
Ionization: ESI
Collision energy: 30 eV
Column name: Acquity CSHC18
Retention time: 19.535 min
Base peak: 955.4572
Precursor m/z: 955.4572
Precursor type: [M-H]-
Precursor intensity: 1902.15
m/z	relative intensity
113.0213	16
193.0314	20
955.4534	78
955.934	999
