Mass spectrum: 3-Methylhistidine; ESI-TOF; MS2; CE: 6.0000000;  [M+H]+
Name: 3-Methylhistidine
Class: NA
Formula: C7H11N3O2
Exact mass: 169.08513
SMILES: CN1C=NC=C1CC(N)C(O)=O
InChI: InChI=1S/C7H11N3O2/c1-10-4-9-3-5(10)2-6(8)7(11)12/h3-4,6H,2,8H2,1H3,(H,11,12)
Instrument: waters xevo g2 TOF
Instrument type: ESI-TOF
Ms type: MS2
Ion mode: POSITIVE
Ionization: ESI
Collision energy: 6.0000000
Column name: Acquity CSHC18
Retention time: 0.492 min
Base peak: 170.09313
Precursor m/z: 170.09313
Precursor type: [M+H]+
m/z	relative intensity
97.0188	253
109.0767	999
110.0799	73
124.0874	29
125.0143	282
126.1033	232
127.106	314
131.9514	46
135.0447	250
138.9897	39
139.9638	82
141.0665	27
145.0175	11
149.961	84
152.0826	38
153.0662	372
154.0699	23
157.0983	10
170.1631	714
171.0462	127
