Mass spectrum: Saccharopine; LC-ESI-ITFT; MS2; CE: 60;  [M-H]-
Name: Saccharopine
Class: Organic acids and derivatives; Carboxylic acids and derivatives; Amino acids, peptides, and analogues
Formula: C11H20N2O6
Exact mass: 276.13214
SMILES: N[C@@H](CCCCN[C@@H](CCC(O)=O)C(O)=O)C(O)=O
InChI: InChI=1S/C11H20N2O6/c12-7(10(16)17)3-1-2-6-13-8(11(18)19)4-5-9(14)15/h7-8,13H,1-6,12H2,(H,14,15)(H,16,17)(H,18,19)/t7-,8-/m0/s1
Instrument: Thermo Scientific Q-Exactive Focus
Instrument type: LC-ESI-ITFT
Ms type: MS2
Ion mode: NEGATIVE
Ionization: ESI
Collision energy: 60
Column name: Acquity CSHC18
Retention time: 1.763 min
Base peak: 275.12485
Precursor m/z: 275.12485
Precursor type: [M-H]-
m/z	relative intensity
76.3894	185
81.9469	184
84.0443	999
92.9764	215
101.9707	181
158.5327	192
172.9223	186
180.5251	189
185.2759	184
237.5441	192
