Mass spectrum: Syringaldehyde; LC-ESI-QTOF; MS2; CE: 50eV;  [M+H]+
Name: Syringaldehyde
Class: Benzaldehyde derivative
Formula: C9H10O4
Exact mass: 182.0579
SMILES: COC1=CC(=CC(=C1O)OC)C=O
InChI: InChI=1S/C9H10O4/c1-12-7-3-6(5-10)4-8(13-2)9(7)11/h3-5,11H,1-2H3
Instrument: TIMS-TOF Pro, Bruker Daltonik; Elute UHPLC System, Bruker Daltonik
Instrument type: LC-ESI-QTOF
Ms type: MS2
Ion mode: POSITIVE
Ionization: ESI
Collision energy: 50eV
Column name: Acquity CSHC18
Retention time: 5.196 min
Base peak: 183.0650
Precursor m/z: 183.0650
Precursor type: [M+H]+
Precursor intensity: 6586.75
m/z	relative intensity
33.387	8
50.0225	164
77.0383	72
95.0481	625
123.0344	126
140.0469	999
