Mass spectrum: (+/-)- Orientaline; ESI-QTOF; MS2; CE: -10, -35, -60;  [M-H]-
Name: (+/-)- Orientaline
Class: Benzylisoquinoline alkaloid
Formula: C19H23NO4
Exact mass: 329.1627
SMILES: CN1CCC2=CC(=C(C=C2C1CC3=CC(=C(C=C3)O)OC)O)OC
InChI: InChI=1S/C19H23NO4/c1-20-7-6-13-10-19(24-3)17(22)11-14(13)15(20)8-12-4-5-16(21)18(9-12)23-2/h4-5,9-11,15,21-22H,6-8H2,1-3H3
Instrument: AB Sciex TripleToF 5500
Instrument type: ESI-QTOF
Ms type: MS2
Ion mode: NEGATIVE
Ionization: ESI
Collision energy: -10, -35, -60
Column name: Acquity CSHC18
Retention time: 4.329 min
Base peak: 328.1562
Precursor m/z: 328.1562
Precursor type: [M-H]-
Precursor intensity: 10487.38
m/z	relative intensity
121.0298	310
161.0488	168
327.1591	76
328.1556	999
329.1562	245
