Mass spectrum: L-Glucose; ESI-TOF; MS2; CE: 6.0000000;  [M+H]+
Name: L-Glucose
Class: NA
Formula: C6H12O6
Exact mass: 180.06339
SMILES: OCC1OC(O)C(O)C(O)C1O
InChI: InChI=1S/C6H12O6/c7-1-2-3(8)4(9)5(10)6(11)12-2/h2-11H,1H2
Instrument: waters xevo g2 TOF
Instrument type: ESI-TOF
Ms type: MS2
Ion mode: POSITIVE
Ionization: ESI
Collision energy: 6.0000000
Column name: Acquity CSHC18
Retention time: 0.532 min
Base peak: 181.07139
Precursor m/z: 181.07139
Precursor type: [M+H]+
m/z	relative intensity
85.0285	30
98.9758	8
113.94	1
127.04	61
145.0497	51
158.9974	26
173.9616	13
174.9695	21
186.9697	35
197.9628	116
200.0445	524
200.5457	68
203.0526	999
204.0566	77
209.0328	37
215.9728	40
227.005	48
233.9826	141
234.9888	102
280.9953	41
281.0718	43
290.0767	375
290.5787	82
292.0081	35
294.0036	563
299.0647	38
324.0153	38
383.1179	42
