Mass spectrum: 3-GlcA-28-Glc-Medicagenic acid; ESI-QTOF; MS2; CE: 30 eV;  [M-H]-
Name: 3-GlcA-28-Glc-Medicagenic acid
Class: Saponin
Formula: C42H64O17
Exact mass: 840.4144
SMILES: CC1(C)CCC2(CCC3(C)C(=CCC4(C5(C)CC(C(C(C)(C5(CCC43C)[H])C(=O)O)(OC6(C(C(C(C(C(=O)O)(O6)[H])(O)[H])(O)[H])(O)[H])[H])[H])(O)[H])[H])C2(C1)[H])C(=O)OC7(C(C(C(C(CO)(O7)[H])(O)[H])(O)[H])(O)[H])[H]
InChI: InChI=1S/C42H64O17/c1-37(2)11-13-42(36(55)59-33-28(49)25(46)24(45)21(17-43)56-33)14-12-39(4)18(19(42)15-37)7-8-22-38(3)16-20(44)31(41(6,35(53)54)23(38)9-10-40(22,39)5)58-34-29(50)26(47)27(48)30(57-34)32(51)52/h7,19-31,33-34,43-50H,8-17H2,1-6H3,(H,51,52)(H,53,54)
Instrument: Synapt (HDMS 1st gen)
Instrument type: ESI-QTOF
Ms type: MS2
Ion mode: NEGATIVE
Ionization: ESI
Collision energy: 30 eV
Column name: Acquity CSHC18
Retention time: 18.631 min
Base peak: 839.4110
Precursor m/z: 839.4110
Precursor type: [M-H]-
Precursor intensity: 1074.31
m/z	relative intensity
193.0332	65
839.4128	999
