Mass spectrum: Rhapontin; LC-ESI-QTOF; MS2; CE: 15;  [M-C6H10O5-H]-
Name: Rhapontin
Class: NA
Formula: C21H24O9
Exact mass: 420.1420
SMILES: COC1=C(C=C(C=C1)C=CC2=CC(=CC(=C2)OC3C(C(C(C(O3)CO)O)O)O)O)O
InChI: InChI=1S/C21H24O9/c1-28-16-5-4-11(8-15(16)24)2-3-12-6-13(23)9-14(7-12)29-21-20(27)19(26)18(25)17(10-22)30-21/h2-9,17-27H,10H2,1H3
Instrument: Bruker MicrOTOF-Q
Instrument type: LC-ESI-QTOF
Ms type: MS2
Ion mode: NEGATIVE
Ionization: ESI
Collision energy: 15
Column name: Acquity CSHC18
Retention time: NA
Base peak: 257.0819
Precursor m/z: 257.0819
Precursor type: [M-C6H10O5-H]-
m/z	relative intensity
185.0591	17
186.0673	12
196.0534	8
197.0622	39
198.0649	21
199.04	59
200.0488	9
213.0557	42
214.06	18
224.0481	84
225.0624	20
241.0509	999
242.0558	181
243.0636	9
