Mass spectrum: Ayapine; LC-ESI-ITFT; MS2; CE: 45eV;  [M+H]+
Name: Ayapine
Class: coumarin
Formula: C10H6O4
Exact mass: 190.0266
SMILES: C1OC2=C(O1)C=C3C(=C2)C=CC(=O)O3
InChI: InChI=1S/C10H6O4/c11-10-2-1-6-3-8-9(13-5-12-8)4-7(6)14-10/h1-4H,5H2
Instrument: LTQ Orbitrap XL, Thermo Scientfic; Dionex Ultimate 300
Instrument type: LC-ESI-ITFT
Ms type: MS2
Ion mode: POSITIVE
Ionization: ESI
Collision energy: 45eV
Column name: Uptispher ODB C19
Retention time: 23.8 min
Base peak: 191.0326
Precursor m/z: 191.0326
Precursor type: [M+H]+
m/z	relative intensity
104.7909	1
132.7738	999
144.814	3
160.7543	8
183.114	1
