Mass spectrum: C22 Ceramide (d18:1/22:0); ESI-TOF; MS2; CE: 6.0000000;  [M+H]+
Name: C22 Ceramide (d18:1/22:0)
Class: NA
Formula: C40H79NO3
Exact mass: 621.60600
SMILES: [H]OC([H])([H])C([H])(N([H])C(=O)C([H])([H])C([H])([H])C([H])([H])C([H])([H])C([H])([H])C([H])([H])C([H])([H])C([H])([H])C([H])([H])C([H])([H])C([H])([H])C([H])([H])C([H])([H])C([H])([H])C([H])([H])C([H])([H])C([H])([H])C([H])([H])C([H])([H])C([H])([H])C([H])([H])[H])C([H])(O[H])C([H])=C([H])C([H])([H])C([H])([H])C([H])([H])C([H])([H])C([H])([H])C([H])([H])C([H])([H])C([H])([H])C([H])([H])C([H])([H])C([H])([H])C([H])([H])C([H])([H])[H]
InChI: InChI=1S/C40H79NO3/c1-3-5-7-9-11-13-15-17-18-19-20-21-22-24-26-28-30-32-34-36-40(44)41-38(37-42)39(43)35-33-31-29-27-25-23-16-14-12-10-8-6-4-2/h33,35,38-39,42-43H,3-32,34,36-37H2,1-2H3,(H,41,44)
Instrument: waters xevo g2 TOF
Instrument type: ESI-TOF
Ms type: MS2
Ion mode: POSITIVE
Ionization: ESI
Collision energy: 6.0000000
Column name: Acquity CSHC18
Retention time: 12.111 min
Base peak: 622.61400
Precursor m/z: 622.61400
Precursor type: [M+H]+
m/z	relative intensity
125.9859	56
125.9863	32
127.9787	41
127.9789	52
129.9793	29
214.9174	1
307.2761	12
307.2776	5
330.7852	227
331.2863	68
604.6045	999
605.6071	447
606.6119	109
622.6152	565
623.619	256
624.621	56
641.5873	148
642.0898	128
642.5894	53
644.5955	481
645.5999	155
646.6029	44
646.6118	17
660.5636	16
706.5659	200
707.5683	51
722.54	80
952.3909	44
952.8943	55
953.3947	38
953.8933	10
