Mass spectrum: Resveratrol; LC-ESI-ITFT; MS2; CE: 10;  [M+H]+
Name: Resveratrol
Class: Phenylpropanoids and polyketides; Stilbenes
Formula: C14H12O3
Exact mass: 228.07864
SMILES: OC1=CC=C(\C=C\C2=CC(O)=CC(O)=C2)C=C1
InChI: InChI=1S/C14H12O3/c15-12-5-3-10(4-6-12)1-2-11-7-13(16)9-14(17)8-11/h1-9,15-17H/b2-1+
Instrument: Thermo Scientific Q-Exactive Focus
Instrument type: LC-ESI-ITFT
Ms type: MS2
Ion mode: POSITIVE
Ionization: ESI
Collision energy: 10
Column name: Acquity CSHC18
Retention time: 0.348 min
Base peak: 229.08592
Precursor m/z: 229.08592
Precursor type: [M+H]+
m/z	relative intensity
91.0546	17
107.0494	53
111.0444	16
119.0494	86
135.0442	281
145.0648	7
183.0804	25
211.0754	41
229.086	999
229.1409	89
