Mass spectrum: Rhapontin; LC-ESI-QTOF; MS2; CE: 15.00;  [M-C6H10O5+H]+
Name: Rhapontin
Class: NA
Formula: C21H24O9
Exact mass: 420.1420
SMILES: COC1=C(C=C(C=C1)C=CC2=CC(=CC(=C2)OC3C(C(C(C(O3)CO)O)O)O)O)O
InChI: InChI=1S/C21H24O9/c1-28-16-5-4-11(8-15(16)24)2-3-12-6-13(23)9-14(7-12)29-21-20(27)19(26)18(25)17(10-22)30-21/h2-9,17-27H,10H2,1H3
Instrument: Bruker MicrOTOF-Q
Instrument type: LC-ESI-QTOF
Ms type: MS2
Ion mode: POSITIVE
Ionization: ESI
Collision energy: 15.00
Column name: Acquity CSHC18
Retention time: NA
Base peak: 259.0965
Precursor m/z: 259.0965
Precursor type: [M-C6H10O5+H]+
m/z	relative intensity
135.042	30
137.0596	34
149.0572	45
150.064	45
153.067	49
157.0632	53
171.0795	56
175.0743	65
181.0639	68
182.0679	72
195.0804	72
198.0654	78
199.0739	79
200.0772	85
209.0587	94
210.0626	125
213.0891	131
226.0613	143
227.0684	178
228.0743	237
241.0826	472
244.0707	545
259.0947	550
260.0973	999
