Mass spectrum: D-Lysine; ESI-TOF; MS2; CE: 0.6458333;  [M+H]+
Name: D-Lysine
Class: NA
Formula: C6H14N2O2
Exact mass: 146.10553
SMILES: NCCCCC(N)C(O)=O
InChI: InChI=1S/C6H14N2O2/c7-4-2-1-3-5(8)6(9)10/h5H,1-4,7-8H2,(H,9,10)
Instrument: waters xevo g2 TOF
Instrument type: ESI-TOF
Ms type: MS2
Ion mode: POSITIVE
Ionization: ESI
Collision energy: 0.6458333
Column name: Acquity CSHC18
Retention time: 0.482 min
Base peak: 147.11353
Precursor m/z: 147.11353
Precursor type: [M+H]+
m/z	relative intensity
67.0551	48
84.0818	607
85.0853	408
91.0559	21
96.0823	104
98.098	32
98.9631	285
100.9918	161
102.093	2
111.0922	2
112.048	16
113.0096	18
114.0194	131
116.9653	61
119.9764	2
128.0721	2
129.1029	2
130.087	999
131.0902	2
138.001	101
139.009	282
142.0234	165
143.0897	14
144.103	2
147.1136	2
148.0358	2
156.0353	473
157.0429	103
169.0953	2
170.1179	146
186.0454	2
191.0775	173
201.0337	130
202.0139	2
215.1408	2
216.124	2
219.0446	2
223.017	24
224.0222	59
225.1279	18
226.1268	2
233.1492	36
234.1533	2
239.1092	116
242.0648	26
244.1678	2
247.0374	2
249.0388	2
251.0164	2
255.1313	2
256.1372	102
258.1412	30
266.0434	2
267.103	54
275.2074	2
284.1291	184
295.0114	2
302.0518	132
303.1402	2
318.7942	17
324.1234	128
328.1167	2
329.1279	49
346.1311	2
347.0486	62
348.141	2
349.1372	17
353.1485	87
369.1197	145
370.1214	25
402.0611	18
404.061	30
444.0951	2
463.2795	2
474.2265	2
485.2637	2
490.2407	2
492.2346	39
493.2376	2
499.2544	2
514.2156	22
515.2165	47
521.2314	77
530.1954	2
531.1923	52
537.2034	72
546.154	60
547.1627	200
548.1631	62
549.1674	66
551.158	31
578.2737	2
638.3423	2
660.3093	2
676.2822	2
682.3024	2
683.3034	43
689.3185	2
699.2713	51
705.2944	36
883.3311	17
