Mass spectrum: (+)-5-trans Cloprostenol; ESI-TOF; MS2; CE: 6.0000000;  [M+H]+
Name: (+)-5-trans Cloprostenol
Class: NA
Formula: C22H29ClO6
Exact mass: 424.16527
SMILES: OC1[C@H](C/C=C/CCCC(O)=O)[C@@H](/C=C/[C@@H](O)COC2=CC(Cl)=CC=C2)C(O)C1
InChI: InChI=1S/C22H29ClO6/c23-15-6-5-7-17(12-15)29-14-16(24)10-11-19-18(20(25)13-21(19)26)8-3-1-2-4-9-22(27)28/h1,3,5-7,10-12,16,18-21,24-26H,2,4,8-9,13-14H2,(H,27,28)/b3-1+,11-10+/t16-,18-,19-,20?,21?/m1/s1
Instrument: waters xevo g2 TOF
Instrument type: ESI-TOF
Ms type: MS2
Ion mode: POSITIVE
Ionization: ESI
Collision energy: 6.0000000
Column name: Acquity CSHC18
Retention time: 3.502 min
Base peak: 425.17327
Precursor m/z: 425.17327
Precursor type: [M+H]+
m/z	relative intensity
117.0708	54
119.0863	24
127.0765	13
131.0865	56
132.0886	6
141.0704	26
143.0862	54
147.1177	37
157.101	31
161.0961	142
165.0938	5
167.025	14
169.1014	20
171.119	61
177.0888	7
179.0955	22
181.1045	52
182.1067	10
184.1188	8
189.1265	62
191.0953	17
197.1299	128
201.1271	55
207.1383	113
208.1201	8
214.0592	15
214.5548	15
215.143	82
216.1432	12
217.1226	148
218.1239	17
219.1389	29
223.091	41
223.5616	22
224.0567	21
225.1273	447
226.131	64
231.1384	11
233.1516	48
243.1385	931
244.141	136
245.1517	39
261.1476	772
262.1524	113
263.1575	21
279.1592	999
280.1653	144
281.1673	13
293.1747	37
353.1334	38
354.0579	11
371.1429	244
372.1428	39
373.1426	89
374.1469	15
389.1493	93
390.0501	11
391.1512	29
407.1602	40
