Mass spectrum: BIOTIN; LC-ESI-QFT; MS2; CE: 30eV;  [M-H]-
Name: BIOTIN
Class: NA
Formula: C10H16N2O3S
Exact mass: 244.08816
SMILES: [H][C@]12CS[C@@H](CCCCC(O)=O)[C@@]1([H])NC(=O)N2
InChI: InChI=1S/C10H16N2O3S/c13-8(14)4-2-1-3-7-9-6(5-16-7)11-10(15)12-9/h6-7,9H,1-5H2,(H,13,14)(H2,11,12,15)/t6-,7-,9-/m0/s1
Instrument: Q-Exactive Orbitrap, Thermo Scientfic; Ultimate 3000 HPLC, Thermo Scientfic
Instrument type: LC-ESI-QFT
Ms type: MS2
Ion mode: NEGATIVE
Ionization: ESI
Collision energy: 30eV
Column name: Acquity CSHC18
Retention time: 6.041 min
Base peak: 243.0809
Precursor m/z: 243.0809
Precursor type: [M-H]-
m/z	relative intensity
58.8271	1
59.4057	1
68.0491	19
74.0055	60
92.1534	2
97.0392	4
97.2008	2
99.1093	2
103.0573	2
111.0436	3
111.0548	13
115.2915	2
116.973	2
118.0378	2
120.0802	9
121.8035	2
122.0961	83
122.4128	2
123.0996	3
126.2048	2
130.0683	3
139.0574	14
153.1023	11
156.0841	89
165.1022	66
166.0863	402
167.0897	19
179.0815	2
189.2923	2
191.0813	10
197.0923	35
199.0904	67
200.0743	619
201.0782	24
209.0925	59
210.0957	5
217.937	2
218.2271	2
223.5865	2
225.0694	2
243.0806	999
244.0841	61
