Mass spectrum: S4:17(2,5,5,5); LC-ESI-QTOF; MS2; CE: -10,-35,-60V;  [M+FA-H]-
Name: S4:17(2,5,5,5)
Class: acyl sugar
Formula: C29H48O15
Exact mass: 636.2993
SMILES: CC(CC(O[C@H]([C@H]2OC(C(CC)C)=O)[C@H](CO)O[C@@H](O[C@]1(O[C@@H](CO)[C@H](O)[C@H]1OC(CC(C)C)=O)CO)[C@H]2OC(C)=O)=O)C
InChI: InChI=1S/C29H48O15/c1-8-16(6)27(37)42-24-23(40-20(34)9-14(2)3)19(12-31)39-28(25(24)38-17(7)33)44-29(13-32)26(22(36)18(11-30)43-29)41-21(35)10-15(4)5/h14-16,18-19,22-26,28,30-32,36H,8-13H2,1-7H3/t16?,18-,19-,22-,23-,24+,25-,26+,28-,29+/m0/s1
Instrument: TripleToF5600, Sciex; Acquity, Waters
Instrument type: LC-ESI-QTOF
Ms type: MS2
Ion mode: NEGATIVE
Ionization: ESI
Collision energy: -10,-35,-60V
Column name: Acquity CSHC18
Retention time: 11.300 min
Base peak: 681.3044
Precursor m/z: 681.3044
Precursor type: [M+FA-H]-
Precursor intensity: 2505979
m/z	relative intensity
71.0137	9
83.0182	4
85.0278	3
89.0232	10
101.024	169
101.0623	169
113.0257	12
115.0775	6
119.0379	5
125.0259	4
143.0379	9
161.0428	8
179.061	5
245.1099	3
305.0962	3
323.0958	19
341.1157	15
389.1634	3
407.1624	18
409.1703	2
425.1753	66
426.1714	11
449.1584	3
467.167	21
491.2264	15
492.2281	3
509.2355	127
510.2235	43
511.2285	11
551.2364	115
552.2511	39
553.2468	9
579.3004	2
593.2911	140
594.2991	42
595.2941	11
635.3072	51
636.3039	23
667.2974	8
671.2747	675
672.2809	441
673.2842	654
674.2809	254
675.2747	33
675.2894	32
677.2828	2
678.312	238
679.121	34
679.1652	28
679.2977	40
680.3246	8
681.1349	12
681.2897	998
681.3081	999
682.2923	988
682.3107	989
683.3178	650
