Mass spectrum: 15-keto Fluprostenol isopropyl ester; ESI-TOF; MS2; CE: 0.6458333;  [M+H]+
Name: 15-keto Fluprostenol isopropyl ester
Class: NA
Formula: C26H33F3O6
Exact mass: 498.22292
SMILES: CC(C)OC(=O)CCCC=CCC1C(CC(C1C=CC(=O)COC2=CC=CC(=C2)C(F)(F)F)O)O
InChI: InChI=1S/C26H33F3O6/c1-17(2)35-25(33)11-6-4-3-5-10-21-22(24(32)15-23(21)31)13-12-19(30)16-34-20-9-7-8-18(14-20)26(27,28)29/h3,5,7-9,12-14,17,21-24,31-32H,4,6,10-11,15-16H2,1-2H3
Instrument: waters xevo g2 TOF
Instrument type: ESI-TOF
Ms type: MS2
Ion mode: POSITIVE
Ionization: ESI
Collision energy: 0.6458333
Column name: Acquity CSHC18
Retention time: 4.472 min
Base peak: 499.23092
Precursor m/z: 499.23092
Precursor type: [M+H]+
m/z	relative intensity
91.0556	172
95.0497	98
98.9641	54
105.0708	235
107.0508	143
117.0701	261
121.0289	58
129.0703	556
131.0764	304
133.0655	309
135.081	53
142.0784	71
143.0859	408
144.0909	48
145.0658	462
147.0793	199
155.0868	296
157.1023	578
158.1046	55
159.0437	30
167.0851	330
169.1024	266
171.1176	361
172.1225	38
173.0963	222
175.111	66
177.0935	50
179.0825	72
181.1012	708
183.1144	104
185.0978	498
187.1119	126
189.1299	33
195.1169	651
196.1221	102
197.0976	303
199.1119	795
201.1273	355
203.1074	248
204.1096	28
205.1195	49
213.1276	507
215.1067	220
217.1227	294
223.1126	583
224.1175	145
241.1229	999
242.1266	246
245.1517	35
259.1334	919
263.0391	30
275.1667	112
277.1072	171
301.1799	235
305.0522	45
319.1889	305
331.1172	49
361.1344	50
385.1432	51
403.1513	292
421.1627	308
435.1144	132
451.1031	457
462.1108	188
463.2116	46
464.2085	34
479.1657	415
481.1291	46
493.1484	57
495.1326	562
497.1204	35
