Mass spectrum: 5-Hydroxyindoleacetic acid; LC-ESI-ITFT; MS2; CE: 30;  [M+H]+
Name: 5-Hydroxyindoleacetic acid
Class: Organoheterocyclic compounds; Indoles and derivatives; Indolyl carboxylic acids and derivatives
Formula: C10H9NO3
Exact mass: 191.05824
SMILES: OC(=O)CC1=CNC2=CC=C(O)C=C12
InChI: InChI=1S/C10H9NO3/c12-7-1-2-9-8(4-7)6(5-11-9)3-10(13)14/h1-2,4-5,11-12H,3H2,(H,13,14)
Instrument: Thermo Scientific Q-Exactive Focus
Instrument type: LC-ESI-ITFT
Ms type: MS2
Ion mode: POSITIVE
Ionization: ESI
Collision energy: 30
Column name: Acquity CSHC18
Retention time: NA
Base peak: 192.06552
Precursor m/z: 192.06552
Precursor type: [M+H]+
m/z	relative intensity
68.9826	14
86.9931	23
91.0546	185
100.0246	17
105.0035	21
117.0574	79
118.0653	277
119.0493	202
128.0495	41
146.06	999
