Mass spectrum: Quercetin 4'-glucoside; LC-ESI-QTOF; MS2; CE: 50eV;  [M+H]+
Name: Quercetin 4'-glucoside
Class: Flavonol
Formula: C21H20O12
Exact mass: 464.0955
SMILES: C1=CC(=C(C=C1C2=C(C(=O)C3=C(C=C(C=C3O2)O)O)O)O)OC4C(C(C(C(O4)CO)O)O)O
InChI: InChI=1S/C21H20O12/c22-6-13-15(26)17(28)19(30)21(33-13)32-11-2-1-7(3-9(11)24)20-18(29)16(27)14-10(25)4-8(23)5-12(14)31-20/h1-5,13,15,17,19,21-26,28-30H,6H2
Instrument: TIMS-TOF Pro, Bruker Daltonik; Elute UHPLC System, Bruker Daltonik
Instrument type: LC-ESI-QTOF
Ms type: MS2
Ion mode: POSITIVE
Ionization: ESI
Collision energy: 50eV
Column name: Acquity CSHC18
Retention time: 5.646 min
Base peak: 465.1010
Precursor m/z: 465.1010
Precursor type: [M+H]+
Precursor intensity: 116992.9
m/z	relative intensity
57.0312	1
81.0341	1
93.0326	1
137.0234	6
145.0475	1
153.0152	3
165.0155	4
193.0092	1
219.0634	1
228.5428	1
229.0492	6
257.0424	4
268.5386	1
281.9489	1
285.0371	2
302.3087	1
302.9518	2
303.0043	7
303.0485	999
303.5431	6
303.9938	3
304.0519	111
305.0432	2
305.0515	6
306.0527	2
358.0662	1
465.101	49
