Mass spectrum: PGA1; ESI-TOF; MS2; CE: 6.0000000;  [M+H]+
Name: PGA1
Class: NA
Formula: C20H32O4
Exact mass: 336.23006
SMILES: [H]OC(=O)C([H])([H])C([H])([H])C([H])([H])C([H])([H])C([H])([H])C([H])([H])C1([H])(C(=O)C([H])=C([H])C1([H])(C([H])=C([H])C([H])(O[H])C([H])([H])C([H])([H])C([H])([H])C([H])([H])C([H])([H])[H]))
InChI: InChI=1S/C20H32O4/c1-2-3-6-9-17(21)14-12-16-13-15-19(22)18(16)10-7-4-5-8-11-20(23)24/h12-18,21H,2-11H2,1H3,(H,23,24)
Instrument: waters xevo g2 TOF
Instrument type: ESI-TOF
Ms type: MS2
Ion mode: POSITIVE
Ionization: ESI
Collision energy: 6.0000000
Column name: Acquity CSHC18
Retention time: 4.765 min
Base peak: 337.23806
Precursor m/z: 337.23806
Precursor type: [M+H]+
m/z	relative intensity
107.0677	2
109.1024	12
117.0707	9
131.0861	25
133.0657	4
141.1268	6
143.0852	3
147.0991	14
149.1324	2
159.1169	9
163.1128	6
167.0736	5
171.1173	9
173.1331	72
174.1371	17
175.1101	10
179.5928	11
185.1335	34
187.1483	35
188.1514	5
189.1282	12
190.5987	6
191.1433	19
192.1453	1
193.1226	21
195.1117	50
197.0936	13
199.1485	20
199.6046	28
200.1041	7
201.1285	6
203.1442	30
204.1105	11
209.1329	11
213.1276	6
217.1605	6
219.1387	6
227.1438	7
229.1955	8
231.1392	9
239.1266	12
245.1544	12
249.0809	35
250.083	4
255.2117	43
256.2136	9
259.2062	12
261.08	10
264.0452	3
265.1961	44
266.199	8
267.0558	1
273.2223	172
274.2247	37
275.097	19
283.2049	130
284.2098	54
289.1125	7
301.1655	999
302.1857	304
303.2231	119
304.2249	9
315.1264	37
319.2271	539
320.2301	250
321.2341	35
333.2429	13
337.2376	4
338.202	177
338.7035	77
339.2061	23
