Mass spectrum: METHYL 4-AMINOBUTYRATE; LC-ESI-QTOF; MS2; CE: 20;  [M+H]+
Name: METHYL 4-AMINOBUTYRATE
Class: NA
Formula: C5H11NO2
Exact mass: 117.07898
SMILES: COC(CCCN)=O
InChI: InChI=1S/C5H11NO2/c1-8-5(7)3-2-4-6/h2-4,6H2,1H3
Instrument: Agilent 6530Â Q-TOF LC/MS
Instrument type: LC-ESI-QTOF
Ms type: MS2
Ion mode: POSITIVE
Ionization: ESI
Collision energy: 20
Column name: NA
Retention time: 0.200 min
Base peak: 118.08800
Precursor m/z: 118.08800
Precursor type: [M+H]+
Precursor intensity: 43.5
m/z	relative intensity
41.0554	48
43.0416	49
58.0861	54
59.2024	70
59.4966	72
59.5828	121
59.6714	158
60.037	173
68.0502	371
69.0538	481
86.0649	544
101.082	562
118.0958	999
