Mass spectrum: 3',7-Dimethylquercetin; LC-ESI-QTOF; MS2; CE: 50eV;  [M-H]-
Name: 3',7-Dimethylquercetin
Class: Flavonol
Formula: C17H14O7
Exact mass: 330.0740
SMILES: COC1=CC(=C2C(=C1)OC(=C(C2=O)O)C3=CC(=C(C=C3)O)OC)O
InChI: InChI=1S/C17H14O7/c1-22-9-6-11(19)14-13(7-9)24-17(16(21)15(14)20)8-3-4-10(18)12(5-8)23-2/h3-7,18-19,21H,1-2H3
Instrument: TIMS-TOF Pro, Bruker Daltonik; Elute UHPLC System, Bruker Daltonik
Instrument type: LC-ESI-QTOF
Ms type: MS2
Ion mode: NEGATIVE
Ionization: ESI
Collision energy: 50eV
Column name: Acquity CSHC18
Retention time: 8.506 min
Base peak: 329.0608
Precursor m/z: 329.0608
Precursor type: [M-H]-
Precursor intensity: 688005
m/z	relative intensity
22.8114	3
38.4459	2
54.5579	2
64.0264	3
65.0029	32
66.6621	4
78.0119	2
79.0178	7
83.7021	3
91.019	22
92.9972	3
94.3278	7
96.4638	3
103.0535	6
107.0124	69
108.0211	17
109.028	125
110.0313	5
112.4627	2
114.5591	7
114.9172	2
115.0524	16
117.0414	8
118.7173	4
119.0112	21
121.027	12
122.0004	3
123.0073	3
127.0516	2
129.032	5
131.0476	9
133.0278	103
134.0299	7
135.0064	28
136.016	3
137.02	3
140.6221	7
141.0917	3
143.0482	38
144.0248	4
145.0275	15
146.0299	2
147.0071	28
147.1658	5
148.0144	7
148.9578	4
149.9929	5
151.0026	41
152.0527	4
153.0322	5
154.0795	4
155.0478	21
156.3286	4
157.0272	20
157.6126	5
158.1555	4
159.0431	7
160.1107	4
161.0237	8
161.5183	4
162.6605	4
163.0026	22
164.1581	3
166.6462	5
169.4567	4
171.0428	37
171.2677	4
171.7013	3
173.0199	10
173.4536	4
174.9249	2
175.0396	34
176.3186	5
177.6191	4
182.0338	7
183.0414	8
183.9877	3
185.2174	5
187.035	21
189.8292	3
195.1713	4
197.0216	10
198.0299	11
199.0385	50
200.0452	7
200.3799	3
201.0165	23
202.0215	6
203.0312	5
213.0231	5
215.0345	28
216.0392	5
219.0741	5
224.0449	2
225.0159	12
226.053	4
227.0308	24
228.0392	6
242.0189	3
243.0281	26
244.032	4
253.0148	2
269.0413	8
271.0208	112
271.5948	3
271.7793	2
272.0237	9
286.045	7
289.1494	2
299.0156	580
299.2092	4
299.3156	2
299.3947	2
299.6294	3
299.8478	2
300.0198	43
301.0229	15
313.6266	4
313.8138	4
313.9737	837
314.2049	7
314.358	6
314.6141	9
314.7928	5
314.932	4
315.0411	457
315.1783	3
315.2707	2
315.3463	3
315.5395	2
315.6571	3
315.9626	4
316.0439	33
316.2906	2
317.1801	3
319.7744	2
329.0608	999
329.2038	4
329.3827	3
329.5071	4
