Mass spectrum: Littorine; LC-ESI-QTOF; MS2; CE: 35eV;  [M+H]+
Name: Littorine
Class: Tropane_alkaloid
Formula: C17H23NO3
Exact mass: 289.1678
SMILES: CN1C2CCC1CC(C2)OC(C(CC3=CC=CC=C3)O)=O
InChI: InChI=1S/C17H23NO3/c1-18-13-7-8-14(18)11-15(10-13)21-17(20)16(19)9-12-5-3-2-4-6-12/h2-6,13-16,19H,7-11H2,1H3
Instrument: maXis impact HD, Bruker; Dionex 3000, Thermo Scientific
Instrument type: LC-ESI-QTOF
Ms type: MS2
Ion mode: POSITIVE
Ionization: ESI
Collision energy: 35eV
Column name: Acquity CSHC18
Retention time: 7.092 min
Base peak: 290.1743
Precursor m/z: 290.1743
Precursor type: [M+H]+
Precursor intensity: 329786.5
m/z	relative intensity
91.0537	133
92.0575	9
93.0694	328
94.0726	27
95.0849	26
96.0802	21
97.0852	1
98.0961	25
99.0998	1
103.0534	16
108.081	3
111.0797	1
121.0639	16
122.096	4
124.1114	999
125.115	84
126.1195	4
140.1066	2
142.1217	464
143.1253	37
144.1277	2
198.1104	1
260.1684	1
290.1738	168
