Mass spectrum: INOSINE-MONOPHOSPHATE; LC-ESI-QTOF; MS2; CE: 40;  [M+H]+
Name: INOSINE-MONOPHOSPHATE
Class: NA
Formula: C10H13N4O8P
Exact mass: 348.04710
SMILES: O[C@@H]1[C@@H](COP(O)(O)=O)O[C@H]([C@@H]1O)N1C=NC2=C1N=CNC2=O
InChI: InChI=1S/C10H13N4O8P/c15-6-4(1-21-23(18,19)20)22-10(7(6)16)14-3-13-5-8(14)11-2-12-9(5)17/h2-4,6-7,10,15-16H,1H2,(H,11,12,17)(H2,18,19,20)/t4-,6-,7-,10-/m1/s1
Instrument: Agilent 6530Â Q-TOF LC/MS
Instrument type: LC-ESI-QTOF
Ms type: MS2
Ion mode: POSITIVE
Ionization: ESI
Collision energy: 40
Column name: NA
Retention time: 0.200 min
Base peak: 349.04942
Precursor m/z: 349.04942
Precursor type: [M+H]+
Precursor intensity: 106.5
m/z	relative intensity
41.0451	96
55.0358	99
67.0364	143
82.0367	146
94.0457	151
97.037	154
110.0409	167
119.0434	177
137.075	190
272.1693	999
