Mass spectrum: Adenine; LC-ESI-ITFT; MS2; CE: 40;  [M-H]-
Name: Adenine
Class: Organoheterocyclic compounds; Imidazopyrimidines; Purines and purine derivatives
Formula: C5H5N5
Exact mass: 135.05450
SMILES: NC1=C2NC=NC2=NC=N1
InChI: InChI=1S/C5H5N5/c6-4-3-5(9-1-7-3)10-2-8-4/h1-2H,(H3,6,7,8,9,10)
Instrument: Thermo Scientific Q-Exactive Focus
Instrument type: LC-ESI-ITFT
Ms type: MS2
Ion mode: NEGATIVE
Ionization: ESI
Collision energy: 40
Column name: Acquity CSHC18
Retention time: 1.474 min
Base peak: 134.04723
Precursor m/z: 134.04723
Precursor type: [M-H]-
m/z	relative intensity
64.0054	45
65.0133	999
66.0085	106
68.0242	80
90.0086	69
92.0242	271
92.5154	37
103.1103	32
106.0273	37
107.035	115
