Mass spectrum: Fluprostenol Lactone Diol; ESI-TOF; MS2; CE: 6.0000000;  [M+H]+
Name: Fluprostenol Lactone Diol
Class: NA
Formula: C18H19F3O5
Exact mass: 372.11846
SMILES: OC(COc1cccc(c1)C(F)(F)F)/C=C/[C@H]1C(O)CC2OC(=O)CC12
InChI: InChI=1S/C18H19F3O5/c19-18(20,21)10-2-1-3-12(6-10)25-9-11(22)4-5-13-14-7-17(24)26-16(14)8-15(13)23/h1-6,11,13-16,22-23H,7-9H2/b5-4+/t11?,13-,14?,15?,16?/m1/s1
Instrument: waters xevo g2 TOF
Instrument type: ESI-TOF
Ms type: MS2
Ion mode: POSITIVE
Ionization: ESI
Collision energy: 6.0000000
Column name: Acquity CSHC18
Retention time: 3.034 min
Base peak: 373.12646
Precursor m/z: 373.12646
Precursor type: [M+H]+
m/z	relative intensity
91.0552	171
93.0698	3
105.0711	163
109.0624	5
115.0548	4
119.0865	98
120.0919	5
121.0297	8
123.0812	3
129.0712	268
133.0663	295
134.0703	19
137.0612	108
138.0628	5
147.0811	156
148.0837	7
151.076	67
153.0361	12
165.0919	87
167.0713	55
175.0765	267
176.0814	24
179.0842	10
187.038	17
193.0871	931
194.0899	116
199.0375	150
200.0393	12
201.0532	28
209.1132	6
217.047	18
235.0793	3
249.0896	22
253.093	6
255.0827	15
267.1022	50
269.0953	13
277.0848	246
278.0856	13
289.1049	27
291.098	64
292.1036	9
293.1114	16
295.0963	431
296.0993	76
297.0935	59
309.1114	128
310.1106	19
313.1072	532
314.1094	50
315.1053	34
317.0993	271
318.1018	24
319.096	43
327.1232	25
329.1169	28
332.0827	30
335.1088	340
336.1156	36
337.1053	999
338.1085	209
339.1069	8
345.1331	50
347.1305	7
353.118	23
355.1164	151
356.1183	16
362.0904	5
373.1262	759
374.13	122
