Mass spectrum: L-threonine; LC-ESI-QTOF; MS2; CE: -10, -35, -60V;  [M-H]-
Name: L-threonine
Class: NA
Formula: C4H9NO3
Exact mass: 119.0582
SMILES: CC(C(C(=O)O)N)O
InChI: InChI=1S/C4H9NO3/c1-2(6)3(5)4(7)8/h2-3,6H,5H2,1H3,(H,7,8)
Instrument: TripleToF 5600; Sciex
Instrument type: LC-ESI-QTOF
Ms type: MS2
Ion mode: NEGATIVE
Ionization: ESI
Collision energy: -10, -35, -60V
Column name: Acquity CSHC18
Retention time: 0.674 min
Base peak: 118.0520
Precursor m/z: 118.0520
Precursor type: [M-H]-
Precursor intensity: 125303.1
m/z	relative intensity
72.0096	194
74.0266	741
117.9317	12
118.0544	999
