Mass spectrum: Benzamide; LC-ESI-ITFT; MS2; CE: 40;  [M+H]+
Name: Benzamide
Class: Benzenoids; Benzene and substituted derivatives; Benzoic acids and derivatives
Formula: C7H7NO
Exact mass: 121.05276
SMILES: NC(=O)C1=CC=CC=C1
InChI: InChI=1S/C7H7NO/c8-7(9)6-4-2-1-3-5-6/h1-5H,(H2,8,9)
Instrument: Thermo Scientific Q-Exactive Focus
Instrument type: LC-ESI-ITFT
Ms type: MS2
Ion mode: POSITIVE
Ionization: ESI
Collision energy: 40
Column name: Acquity CSHC18
Retention time: 0.945 min
Base peak: 122.06004
Precursor m/z: 122.06004
Precursor type: [M+H]+
m/z	relative intensity
50.0157	224
51.0235	999
53.0391	293
56.9653	28
77.0389	257
79.0546	26
81.0338	11
92.5227	12
95.0494	553
105.0449	137
