Mass spectrum: thymine; LC-ESI-QTOF; MS2; CE: -10, -35, -60V;  [M-H]-
Name: thymine
Class: NA
Formula: C5H6N2O2
Exact mass: 126.0429
SMILES: CC1=CNC(=O)NC1=O
InChI: InChI=1S/C5H6N2O2/c1-3-2-6-5(9)7-4(3)8/h2H,1H3,(H2,6,7,8,9)
Instrument: TripleToF 5600; Sciex
Instrument type: LC-ESI-QTOF
Ms type: MS2
Ion mode: NEGATIVE
Ionization: ESI
Collision energy: -10, -35, -60V
Column name: Acquity CSHC18
Retention time: 0.770 min
Base peak: 125.0369
Precursor m/z: 125.0369
Precursor type: [M-H]-
Precursor intensity: 157104.9
m/z	relative intensity
66.0003	9
99.9282	14
116.9273	33
119.0357	33
125.0378	999
