Mass spectrum: 7-Hydroxy-5-methoxychromen-2-one; LC-ESI-ITFT; MS2; CE: 45eV;  [M+H]+
Name: 7-Hydroxy-5-methoxychromen-2-one
Class: coumarin
Formula: C10H8O4
Exact mass: 192.0423
SMILES: COC1=C2C=CC(=O)OC2=CC(=C1)O
InChI: InChI=1S/C10H8O4/c1-13-8-4-6(11)5-9-7(8)2-3-10(12)14-9/h2-5,11H,1H3
Instrument: LTQ Orbitrap XL, Thermo Scientfic; Dionex Ultimate 300
Instrument type: LC-ESI-ITFT
Ms type: MS2
Ion mode: POSITIVE
Ionization: ESI
Collision energy: 45eV
Column name: Alltima C18
Retention time: 19.87 min
Base peak: 193.0484
Precursor m/z: 193.0484
Precursor type: [M+H]+
m/z	relative intensity
80.8713	22
88.9345	28
101.7583	1
106.9327	34
116.9563	49
124.9666	108
133.946	76
138.9429	10
161.0683	5
177.911	999
