Mass spectrum: PANTOTHENATE; LC-ESI-QTOF; MS2; CE: 40;  [M+H]+
Name: PANTOTHENATE
Class: NA
Formula: C9H17NO5
Exact mass: 219.11067
SMILES: CC(C)(CO)C(O)C(=O)NCCC(O)=O
InChI: InChI=1S/C9H17NO5/c1-9(2,5-11)7(14)8(15)10-4-3-6(12)13/h7,11,14H,3-5H2,1-2H3,(H,10,15)(H,12,13)
Instrument: Agilent 6530Â Q-TOF LC/MS
Instrument type: LC-ESI-QTOF
Ms type: MS2
Ion mode: POSITIVE
Ionization: ESI
Collision energy: 40
Column name: NA
Retention time: 0.200 min
Base peak: 220.12094
Precursor m/z: 220.12094
Precursor type: [M+H]+
Precursor intensity: 45.5
m/z	relative intensity
41.061	34
42.0567	39
43.0436	39
44.0279	41
45.0383	43
47.0095	46
53.0466	47
54.0384	50
55.0563	51
56.0366	53
57.0802	72
59.0623	83
61.0318	85
65.0516	86
67.0802	94
68.0553	100
69.0828	105
70.0494	121
72.0604	127
73.0513	132
74.022	156
77.0402	157
78.0318	159
79.0654	190
80.052	224
81.0653	229
82.0721	236
83.0537	240
85.0767	262
90.0611	430
94.0696	450
95.0644	454
96.0925	651
98.0377	856
113.0539	866
124.0874	867
125.0757	999
