Mass spectrum: Strictosidine secologanoside; ESI-QTOF; MS2; CE: 30 eV;  [M+H]+
Name: Strictosidine secologanoside
Class: NA
Formula: C44H58N2O18
Exact mass: 902.3685
SMILES: C=CC1(C(CCN2CCC=3C4=CC=CC=C4NC3C2(CC5(C(C=C)(C(OC=C5C(=O)OC)(OC6(C(C(C(C(CO)(O6)[H])(O)[H])(O)[H])(O)[H])[H])[H])[H])[H])[H])(C(=COC1(OC7(C(C(C(C(CO)(O7)[H])(O)[H])(O)[H])(O)[H])[H])[H])C(=O)OC)[H])[H]
InChI: InChI=1S/C44H58N2O18/c1-5-20-22(26(39(55)57-3)18-59-41(20)63-43-37(53)35(51)33(49)30(16-47)61-43)11-13-46-14-12-24-23-9-7-8-10-28(23)45-32(24)29(46)15-25-21(6-2)42(60-19-27(25)40(56)58-4)64-44-38(54)36(52)34(50)31(17-48)62-44/h5-10,18-22,25,29-31,33-38,41-45,47-54H,1-2,11-17H2,3-4H3
Instrument: Synapt (HDMS 1st gen)
Instrument type: ESI-QTOF
Ms type: MS2
Ion mode: POSITIVE
Ionization: ESI
Collision energy: 30 eV
Column name: Acquity CSHC18
Retention time: 14.904 min
Base peak: 903.3824
Precursor m/z: 903.3824
Precursor type: [M+H]+
Precursor intensity: 1125.41
m/z	relative intensity
179.0712	50
180.1018	50
208.0972	103
222.1156	138
240.1244	148
402.1772	196
903.376	999
