Mass spectrum: 15-deoxy--delta12,14-Prostaglandin A1; ESI-TOF; MS2; CE: 6.0000000;  [M+H]+
Name: 15-deoxy--delta12,14-Prostaglandin A1
Class: NA
Formula: C20H30O3
Exact mass: 318.21949
SMILES: CCCCC/C=C/C=C1\C=CC(=O)C\1CCCCCCC(=O)O
InChI: InChI=1S/C20H30O3/c1-2-3-4-5-6-9-12-17-15-16-19(21)18(17)13-10-7-8-11-14-20(22)23/h6,9,12,15-16,18H,2-5,7-8,10-11,13-14H2,1H3,(H,22,23)/b9-6+,17-12+
Instrument: waters xevo g2 TOF
Instrument type: ESI-TOF
Ms type: MS2
Ion mode: POSITIVE
Ionization: ESI
Collision energy: 6.0000000
Column name: Acquity CSHC18
Retention time: 4.798 min
Base peak: 319.22749
Precursor m/z: 319.22749
Precursor type: [M+H]+
m/z	relative intensity
170.0865	27
179.0904	28
179.5924	20
188.0966	36
190.5968	21
191.1222	4
195.1044	91
199.6038	104
200.1064	12
273.2192	16
274.2242	6
283.2064	18
301.1781	999
302.2201	342
303.2226	62
319.2267	421
320.2301	8
