Mass spectrum: Adenosine 5'-monophosphate (AMP); LC-ESI-QTOF; MS2; CE: 33.86;  [2M-H]-
Name: Adenosine 5'-monophosphate (AMP)
Class: NA
Formula: C10H14N5O7P
Exact mass: 347.0631
SMILES: C1=NC(=C2C(=N1)N(C=N2)C3C(C(C(O3)COP(=O)(O)O)O)O)N
InChI: InChI=1S/C10H14N5O7P/c11-8-5-9(13-2-12-8)15(3-14-5)10-7(17)6(16)4(22-10)1-21-23(18,19)20/h2-4,6-7,10,16-17H,1H2,(H2,11,12,13)(H2,18,19,20)
Instrument: Bruker MicrOTOF-Q
Instrument type: LC-ESI-QTOF
Ms type: MS2
Ion mode: NEGATIVE
Ionization: ESI
Collision energy: 33.86
Column name: Acquity CSHC18
Retention time: NA
Base peak: 693.1189
Precursor m/z: 693.1189
Precursor type: [2M-H]-
m/z	relative intensity
78.96	1
96.97	8
134.05	12
135.04	1
138.98	5
150.98	12
158.92	1
192.99	11
194	1
210.2	1
211	62
212	4
213	1
272.96	1
328.04	2
344.03	1
344.21	1
344.3	1
344.36	1
344.43	1
344.53	1
344.71	4
345.06	2
345.17	2
345.32	1
346.05	999
346.31	3
346.5	3
346.61	2
346.7	3
346.87	3
347.06	134
347.27	1
347.34	1
347.45	1
347.55	1
347.64	1
347.75	1
347.83	1
348.06	20
349.06	2
408	1
426.02	1
