Mass spectrum: SEBACATE; LC-ESI-QTOF; MS2; CE: 40;  [M-H]-
Name: SEBACATE
Class: NA
Formula: C10H18O4
Exact mass: 202.12051
SMILES: OC(=O)CCCCCCCCC(O)=O
InChI: InChI=1S/C10H18O4/c11-9(12)7-5-3-1-2-4-6-8-10(13)14/h1-8H2,(H,11,12)(H,13,14)
Instrument: Agilent 6530Â Q-TOF LC/MS
Instrument type: LC-ESI-QTOF
Ms type: MS2
Ion mode: NEGATIVE
Ionization: ESI
Collision energy: 40
Column name: NA
Retention time: 0.200 min
Base peak: 201.11310
Precursor m/z: 201.11310
Precursor type: [M-H]-
Precursor intensity: 104
m/z	relative intensity
72.972	697
79.9655	999
