Mass spectrum: TYROSINE; LC-ESI-QTOF; MS2; CE: 20;  [M-H]-
Name: TYROSINE
Class: NA
Formula: C9H11NO3
Exact mass: 181.07389
SMILES: N[C@@H](CC1=CC=C(O)C=C1)C(O)=O
InChI: InChI=1S/C9H11NO3/c10-8(9(12)13)5-6-1-3-7(11)4-2-6/h1-4,8,11H,5,10H2,(H,12,13)/t8-/m0/s1
Instrument: Agilent 6530Â Q-TOF LC/MS
Instrument type: LC-ESI-QTOF
Ms type: MS2
Ion mode: NEGATIVE
Ionization: ESI
Collision energy: 20
Column name: NA
Retention time: 0.200 min
Base peak: 180.06572
Precursor m/z: 180.06572
Precursor type: [M-H]-
Precursor intensity: 137
m/z	relative intensity
42.001	100
69.9883	107
72.0177	119
74.0219	120
79.9555	160
93.0421	211
119.0656	389
134.0617	481
163.0508	587
180.0733	999
