Mass spectrum: Acetylcysteine; LC-ESI-ITFT; MS2; CE: 20;  [M+H]+
Name: Acetylcysteine
Class: Organic acids and derivatives; Carboxylic acids and derivatives; Amino acids, peptides, and analogues
Formula: C5H9NO3S
Exact mass: 163.03031
SMILES: CC(=O)N[C@@H](CS)C(O)=O
InChI: InChI=1S/C5H9NO3S/c1-3(7)6-4(2-10)5(8)9/h4,10H,2H2,1H3,(H,6,7)(H,8,9)/t4-/m0/s1
Instrument: Thermo Scientific Q-Exactive Focus
Instrument type: LC-ESI-ITFT
Ms type: MS2
Ion mode: POSITIVE
Ionization: ESI
Collision energy: 20
Column name: Acquity CSHC18
Retention time: 0.630 min
Base peak: 164.03758
Precursor m/z: 164.03758
Precursor type: [M+H]+
m/z	relative intensity
58.9955	358
76.022	999
81.5839	5
82.0141	5
86.9902	179
92.5226	8
100.0246	41
105.0007	195
118.035	9
122.0271	99
