Mass spectrum: D-Tryptophan; LC-ESI-ITFT; MS2; CE: 100;  [M+H]+
Name: D-Tryptophan
Class: Organoheterocyclic compounds; Indoles and derivatives; Indolyl carboxylic acids and derivatives
Formula: C11H12N2O2
Exact mass: 204.08988
SMILES: N[C@H](CC1=CNC2=C1C=CC=C2)C(O)=O
InChI: InChI=1S/C11H12N2O2/c12-9(11(14)15)5-7-6-13-10-4-2-1-3-8(7)10/h1-4,6,9,13H,5,12H2,(H,14,15)/t9-/m1/s1
Instrument: Thermo Scientific Q-Exactive Focus
Instrument type: LC-ESI-ITFT
Ms type: MS2
Ion mode: POSITIVE
Ionization: ESI
Collision energy: 100
Column name: Acquity CSHC18
Retention time: 2.573 min
Base peak: 205.09715
Precursor m/z: 205.09715
Precursor type: [M+H]+
m/z	relative intensity
50.0157	264
51.0236	580
53.0028	103
62.0157	261
63.0235	999
65.0391	334
74.0156	185
75.0234	150
89.039	927
115.0544	146
