Mass spectrum: Camalexin; LC-ESI-QTOF; MS2; CE: 15.00;  [M+H]+
Name: Camalexin
Class: NA
Formula: C11H8N2S
Exact mass: 200.0408
SMILES: C1=CC=C2C(=C1)C(=CN2)C3=NC=CS3
InChI: InChI=1S/C11H8N2S/c1-2-4-10-8(3-1)9(7-13-10)11-12-5-6-14-11/h1-7,13H
Instrument: Bruker MicrOTOF-Q
Instrument type: LC-ESI-QTOF
Ms type: MS2
Ion mode: POSITIVE
Ionization: ESI
Collision energy: 15.00
Column name: Acquity CSHC18
Retention time: NA
Base peak: 201.0481
Precursor m/z: 201.0481
Precursor type: [M+H]+
m/z	relative intensity
116.05	6
117.05	2
130.06	2
142.05	34
143.06	10
144.07	1
148.02	4
155.06	1
156.07	2
157.07	3
160.02	39
161.02	4
167.06	6
168.07	54
169.07	22
170.08	1
172.02	1
173.03	15
174.04	55
175.04	5
176.03	1
184.02	1
185.07	1
199.03	1
200.04	22
200.16	2
200.34	1
200.52	1
200.94	9
201.05	999
201.25	4
201.39	5
201.54	3
201.71	2
201.9	1
202.05	277
202.2	1
202.27	1
202.4	1
203.04	18
