Mass spectrum: GLUCOSAMINATE; LC-ESI-QFT; MS2; CE: 30eV;  [M+H]+
Name: GLUCOSAMINATE
Class: NA
Formula: C6H13NO6
Exact mass: 195.07429
SMILES: C(C(C(C(C(C(=O)O)N)O)O)O)O
InChI: InChI=1S/C6H13NO6/c7-3(6(12)13)5(11)4(10)2(9)1-8/h2-5,8-11H,1,7H2,(H,12,13)
Instrument: Q-Exactive Orbitrap, Thermo Scientfic; Ultimate 3000 HPLC, Thermo Scientfic
Instrument type: LC-ESI-QFT
Ms type: MS2
Ion mode: POSITIVE
Ionization: ESI
Collision energy: 30eV
Column name: Acquity CSHC18
Retention time: 0.548 min
Base peak: 196.0816
Precursor m/z: 196.0816
Precursor type: [M+H]+
Precursor intensity: 134
m/z	relative intensity
54.2038	3
55.0187	4
55.2947	3
55.4226	2
55.4849	2
55.572	3
56.0504	5
56.2597	2
57.0343	21
58.0296	5
60.0452	79
61.0292	14
61.1841	3
62.6459	3
62.9412	3
66.9179	3
66.9883	3
68.0503	71
68.6978	3
69.0342	28
70.0295	31
72.0452	394
73.0292	62
73.0486	4
73.2019	3
73.2586	2
74.0244	309
74.8847	2
80.0502	18
84.0451	29
85.0291	140
86.0608	45
86.361	3
87.0448	17
88.04	17
92.9673	4
96.0451	68
97.0291	22
98.0607	70
103.0397	6
104.0349	50
107.2541	4
112.0399	28
114.0555	370
115.0396	107
115.0588	7
116.0713	45
124.0398	18
133.05	338
133.064	6
133.0692	87
134.0454	4
134.0534	4
140.1888	3
142.0503	42
150.0765	999
151.0746	4
151.0796	34
155.9749	3
158.008	3
160.0608	120
166.1008	3
176.2444	3
178.0714	289
179.0751	7
197.0775	5
197.0857	98
210.8769	3
