Mass spectrum: ETHANOLAMINE PHOSPHATE; LC-ESI-QFT; MS2; CE: 30eV;  [M+H]+
Name: ETHANOLAMINE PHOSPHATE
Class: NA
Formula: C2H8NO4P
Exact mass: 141.01909
SMILES: NCCOP(O)(O)=O
InChI: InChI=1S/C2H8NO4P/c3-1-2-7-8(4,5)6/h1-3H2,(H2,4,5,6)
Instrument: Q-Exactive Orbitrap, Thermo Scientfic; Ultimate 3000 HPLC, Thermo Scientfic
Instrument type: LC-ESI-QFT
Ms type: MS2
Ion mode: POSITIVE
Ionization: ESI
Collision energy: 30eV
Column name: Acquity CSHC18
Retention time: 0.527 min
Base peak: 142.0264
Precursor m/z: 142.0264
Precursor type: [M+H]+
Precursor intensity: 177
m/z	relative intensity
52.9769	1
55.055	1
55.9351	17
56.943	219
57.9433	1
58.0659	1
61.9004	1
66.8815	1
71.0612	1
72.9378	207
73.9383	2
74.9534	25
78.6149	1
83.7207	1
83.8786	1
84.9605	1
85.0654	1
85.0766	7
90.9482	192
91.9487	1
95.0859	1
96.9613	1
97.0654	2
97.9693	75
98.0717	2
100.9437	1
108.9587	39
112.0874	15
112.2804	1
112.9671	2
113.9641	999
114.964	12
114.9676	9
114.9714	2
115.9797	25
116.7496	1
116.9722	2
117.9458	1
117.9802	1
118.943	30
118.9676	4
119.9756	2
120.0239	2
125.0964	1
131.9745	544
132.975	7
133.9787	1
136.9534	43
141.1137	28
141.9588	7
142.0266	26
142.117	1
142.9323	6
149.9852	5
154.9641	1
154.9904	5
159.9695	9
