Mass spectrum: ursolic acid; LC-ESI-ITFT; MS2; CE: 0.3;  [M+H]+
Name: ursolic acid
Class: triterpenes
Formula: C30H48O3
Exact mass: 456.3603
SMILES: CC1CCC2(CCC3(C(=CCC4C3(CCC5C4(CCC(C5(C)C)O)C)C)C2C1C)C)C(=O)O
InChI: InChI=1S/C30H48O3/c1-18-10-15-30(25(32)33)17-16-28(6)20(24(30)19(18)2)8-9-22-27(5)13-12-23(31)26(3,4)21(27)11-14-29(22,28)7/h8,18-19,21-24,31H,9-17H2,1-7H3,(H,32,33)
Instrument: LTQ-Orbitrap XL hybrid mass spectrometer (Thermo Scientific)
Instrument type: LC-ESI-ITFT
Ms type: MS2
Ion mode: POSITIVE
Ionization: ESI
Collision energy: 0.3
Column name: Acquity CSHC18
Retention time: 17.551 min
Base peak: 457.3687
Precursor m/z: 457.3687
Precursor type: [M+H]+
Precursor intensity: 1826169
m/z	relative intensity
124.288	3
134.6503	2
141.507	3
142.6317	2
161.2077	3
161.2118	4
161.2172	5
163.1613	3
168.2085	3
191.1801	26
193.9408	2
196.0219	3
196.1009	10
203.1802	15
205.1959	33
217.1959	6
221.1908	5
223.3703	2
249.1864	4
275.2019	3
286.5881	3
286.5983	5
286.6102	4
323.7647	3
335.6147	3
351.6045	3
393.3533	26
407.7601	3
408.9533	2
411.3422	8
411.3472	5
411.3637	999
411.3856	4
411.3918	8
412.367	53
421.3486	3
439.3585	505
439.3895	4
439.3951	2
440.3619	31
456.8084	4
