Mass spectrum: 15beta-Hydroxy-sola-dulcidin; APCI-ITFT; MS2; CE: 35 CID;  [M+H]+
Name: 15beta-Hydroxy-sola-dulcidin
Class: NA
Formula: C27H45NO3
Exact mass: 431.33994
SMILES: C[C@@]12[C@](CC[C@]3([H])[C@@]([H])2CC[C@@]4(C)[C@@]3([H])[C@H](O)[C@@]5([H])[C@]4([H])[C@H](C)[C@]6(NC[C@H](C)CC6)O5)([H])C[C@@H](O)CC1
InChI: InChI=1S/C27H45NO3/c1-15-7-12-27(28-14-15)16(2)21-24(31-27)23(30)22-19-6-5-17-13-18(29)8-10-25(17,3)20(19)9-11-26(21,22)4/h15-24,28-30H,5-14H2,1-4H3/t15-,16+,17+,18+,19-,20+,21+,22-,23+,24-,25+,26-,27-/m1/s1
Instrument: Orbitrap Elite
Instrument type: APCI-ITFT
Ms type: MS2
Ion mode: POSITIVE
Ionization: APCI
Collision energy: 35 CID
Column name: Acquity CSHC18
Retention time: 0.088 min
Base peak: 432.34780
Precursor m/z: 432.34780
Precursor type: [M+H]+
Precursor intensity: 7909072
m/z	relative intensity
135.1175	4
145.1015	40
157.1015	21
168.1383	16
180.139	6
211.1483	17
225.1636	11
253.1955	185
269.1913	8
385.3126	6
394.3104	124
414.3367	999
