Mass spectrum: (-)-epicatechin; LC-ESI-ITFT; MS2; CE: 0.3;  [M+H]+
Name: (-)-epicatechin
Class: flavanols
Formula: C15H14O6
Exact mass: 290.0790
SMILES: C1C(C(OC2=CC(=CC(=C21)O)O)C3=CC(=C(C=C3)O)O)O
InChI: InChI=1S/C15H14O6/c16-8-4-11(18)9-6-13(20)15(21-14(9)5-8)7-1-2-10(17)12(19)3-7/h1-5,13,15-20H,6H2
Instrument: LTQ-Orbitrap XL hybrid mass spectrometer (Thermo Scientific)
Instrument type: LC-ESI-ITFT
Ms type: MS2
Ion mode: POSITIVE
Ionization: ESI
Collision energy: 0.3
Column name: Acquity CSHC18
Retention time: 6.281 min
Base peak: 291.0874
Precursor m/z: 291.0874
Precursor type: [M+H]+
Precursor intensity: 25422130
m/z	relative intensity
70.0187	5
70.5893	7
71.4826	5
71.6537	6
72.5189	5
73.3939	6
79.6144	5
79.7554	4
80.0276	5
80.1638	5
80.1934	5
80.694	6
81.7258	5
89.2239	4
90.1456	4
91.8834	5
92.2809	5
93.3744	5
96.5356	5
103.1813	15
108.3637	5
111.2268	5
116.5083	4
119.0495	6
123.0443	946
123.0476	5
123.3618	5
123.6404	9
130.293	5
137.0601	12
139.0351	10
139.0393	999
139.2769	5
139.5161	8
139.7553	9
146.7652	5
147.0445	159
151.0394	277
161.2206	21
165.0552	493
165.672	5
169.0501	24
192.1769	4
194.5188	6
194.5274	4
194.5551	4
196.1252	19
249.077	13
273.0772	244
286.6134	20
291.0829	5
