Mass spectrum: O-acyl sugar AS8; LC-ESI-QTOF; MS2; CE: 22.5eV; [M+Na]+
Name: O-acyl sugar AS8
Class: O-acyl sugar
Formula: C28H46O15
Exact mass: 622.2837
SMILES: CC(CC)C(=O)O[C@H]1[C@H](O[C@H](CO)[C@@H](OC(=O)C(C)CC)[C@@H]1OC(=O)C(C)C)O[C@]1(CO)O[C@H](CO)[C@@H](OC(C)=O)[C@@H]1O
InChI: InChI=1S/C28H46O15/c1-8-14(5)25(35)39-19-17(10-29)38-27(22(41-26(36)15(6)9-2)21(19)40-24(34)13(3)4)43-28(12-31)23(33)20(37-16(7)32)18(11-30)42-28/h13-15,17-23,27,29-31,33H,8-12H2,1-7H3/t14?,15?,17-,18-,19-,20-,21+,22-,23+,27-,28+/m1/s1
Instrument: Microtof-q MS
Instrument type: LC-ESI-QTOF
Ms type: MS2
Ion mode: POSITIVE
Ionization: ESI
Collision energy: 22.5eV
Column name: Acquity CSH C18 column (particle size 1.7 μm, column length 2.1 × 50 mm) (Waters)
Retention time: NA
Base peak: 645.2746
Precursor m/z: 645.2746
Precursor type: [M+Na]+
m/z	relative intensity
97.0281	68
205.0699	61
325.1250	41
339.1365	22
353.1538	16
441.2082	385
529.1925	15
543.2058	25
557.2190	48
645.2746	999
