Mass spectrum: N-Butyryl-L-homoserine lactone; LC-ESI-ITFT; MS2; CE: 20;  [M+H]+
Name: N-Butyryl-L-homoserine lactone
Class: NA
Formula: C8H13NO3
Exact mass: 171.08954
SMILES: CCCC(=O)N[C@H]1CCOC1=O
InChI: InChI=1S/C8H13NO3/c1-2-3-7(10)9-6-4-5-12-8(6)11/h6H,2-5H2,1H3,(H,9,10)/t6-/m0/s1
Instrument: Thermo Scientific Q-Exactive Focus
Instrument type: LC-ESI-ITFT
Ms type: MS2
Ion mode: POSITIVE
Ionization: ESI
Collision energy: 20
Column name: Acquity CSHC18
Retention time: 0.634 min
Base peak: 172.09682
Precursor m/z: 172.09682
Precursor type: [M+H]+
m/z	relative intensity
56.05	216
57.034	10
70.0656	16
71.0495	999
74.024	274
74.0604	859
84.0447	135
85.0287	98
102.0551	895
154.0861	15
