Mass spectrum: myo-Inositol, Dimer+Na; LC-ESI-QTOF; MS2; CE: 21.23;  [2M+Na]+
Name: myo-Inositol, Dimer+Na
Class: NA
Formula: C6H12O6
Exact mass: 180.0634
SMILES: C1(C(C(C(C(C1O)O)O)O)O)O
InChI: InChI=1S/C6H12O6/c7-1-2(8)4(10)6(12)5(11)3(1)9/h1-12H
Instrument: Bruker MicrOTOF-Q
Instrument type: LC-ESI-QTOF
Ms type: MS2
Ion mode: POSITIVE
Ionization: ESI
Collision energy: 21.23
Column name: Acquity CSHC18
Retention time: NA
Base peak: 383.1160
Precursor m/z: 383.1160
Precursor type: [2M+Na]+
m/z	relative intensity
200.0458	12
200.5449	15
203.0509	18
204.0543	27
205.0557	62
385.0934	999
