Mass spectrum: 6-(Malonyl-GlcO)-I3CO2H; LC-ESI-QTOF; MS2; CE: 24.31;  [M-H]-
Name: 6-(Malonyl-GlcO)-I3CO2H
Class: NA
Formula: C18H19NO11
Exact mass: 425.0958
SMILES: C1=CC2=C(C=C1OC3C(C(C(C(O3)COC(=O)CC(=O)O)O)O)O)C(=CN2)C(=O)O
InChI: InChI=1S/C18H19NO11/c20-12(21)4-13(22)28-6-11-14(23)15(24)16(25)18(30-11)29-7-1-2-10-8(3-7)9(5-19-10)17(26)27/h1-3,5,11,14-16,18-19,23-25H,4,6H2,(H,20,21)(H,26,27)
Instrument: Bruker MicrOTOF-Q
Instrument type: LC-ESI-QTOF
Ms type: MS2
Ion mode: NEGATIVE
Ionization: ESI
Collision energy: 24.31
Column name: Acquity CSHC18
Retention time: NA
Base peak: 424.0885
Precursor m/z: 424.0885
Precursor type: [M-H]-
m/z	relative intensity
47.308	3
64.8097	2
80.4665	1
96.9606	6
104.0486	4
113.0276	3
126.9065	13
128.0476	2
131.0373	142
131.9445	6
132.0449	999
132.2677	2
132.3208	6
132.4746	3
132.6506	1
133.0481	96
145.7687	2
146.0591	24
174.0457	5
175.027	338
175.4898	3
175.8899	4
176.0346	568
176.3235	3
177.0368	67
178.0432	8
186.0525	4
198.0447	4
212.0751	2
214.074	3
218.046	28
218.9268	11
219.0524	5
248.0558	6
276.0897	5
320.0821	16
338.0865	13
380.0987	18
