Mass spectrum: DIAMINOPIMELATE; LC-ESI-QTOF; MS2; CE: 40;  [M+H]+
Name: DIAMINOPIMELATE
Class: NA
Formula: C7H14N2O4
Exact mass: 190.0954
SMILES: N[C@@H](CCC[C@H](N)C(O)=O)C(O)=O
InChI: InChI=1S/C7H14N2O4/c8-4(6(10)11)2-1-3-5(9)7(12)13/h4-5H,1-3,8-9H2,(H,10,11)(H,12,13)/t4-,5-/m0/s1
Instrument: Agilent 6530Â Q-TOF LC/MS
Instrument type: LC-ESI-QTOF
Ms type: MS2
Ion mode: POSITIVE
Ionization: ESI
Collision energy: 40
Column name: NA
Retention time: 0.200 min
Base peak: 191.10267
Precursor m/z: 191.10267
Precursor type: [M+H]+
Precursor intensity: 105.5
m/z	relative intensity
55.0533	999
56.9645	252
67.0408	278
82.0667	239
84.0763	323
