Mass spectrum: 3-METHYLHISTAMINE; LC-ESI-QTOF; MS2; CE: 40;  [M+H]+
Name: 3-METHYLHISTAMINE
Class: NA
Formula: C6H11N3
Exact mass: 125.09530
SMILES: CN1C=NC=C1CCN
InChI: InChI=1S/C6H11N3/c1-9-5-8-4-6(9)2-3-7/h4-5H,2-3,7H2,1H3
Instrument: Agilent 6530Â Q-TOF LC/MS
Instrument type: LC-ESI-QTOF
Ms type: MS2
Ion mode: POSITIVE
Ionization: ESI
Collision energy: 40
Column name: NA
Retention time: 0.200 min
Base peak: 126.10357
Precursor m/z: 126.10357
Precursor type: [M+H]+
Precursor intensity: 36.5
m/z	relative intensity
40.0323	19
41.0701	20
41.341	21
41.8363	21
42.364	21
43.0015	22
44.0557	23
51.0276	23
52.0376	24
53.0471	25
54.3892	27
54.8866	27
55.206	44
56.1959	64
56.5596	68
57.0563	88
65.0475	91
66.0521	98
67.0805	105
67.4733	115
68.4593	139
69.1043	142
69.5749	143
70.0897	155
78.0578	187
79.0457	192
80.0604	194
81.4082	249
82.0832	300
83.0518	409
93.0642	463
94.0649	520
94.5953	549
94.7693	701
95.9074	795
97.0678	825
97.3531	859
107.0492	999
109.1047	19
