Mass spectrum: Tryptamine; LC-ESI-ITFT; MS2; CE: 40;  [M+H]+
Name: Tryptamine
Class: Organoheterocyclic compounds; Indoles and derivatives; Tryptamines and derivatives
Formula: C10H12N2
Exact mass: 160.10005
SMILES: NCCC1=CNC2=CC=CC=C12
InChI: InChI=1S/C10H12N2/c11-6-5-8-7-12-10-4-2-1-3-9(8)10/h1-4,7,12H,5-6,11H2
Instrument: Thermo Scientific Q-Exactive Focus
Instrument type: LC-ESI-ITFT
Ms type: MS2
Ion mode: POSITIVE
Ionization: ESI
Collision energy: 40
Column name: Acquity CSHC18
Retention time: 1.463 min
Base peak: 161.10732
Precursor m/z: 161.10732
Precursor type: [M+H]+
m/z	relative intensity
65.039	132
89.0389	249
90.0467	164
91.0546	813
95.0494	169
115.0544	999
116.0621	140
117.0574	574
142.0651	138
143.0729	524
