Mass spectrum: Indole; LC-ESI-ITFT; MS2; CE: 10;  [M+H]+
Name: Indole
Class: Organoheterocyclic compounds; Indoles and derivatives; Indoles
Formula: C8H7N
Exact mass: 117.05785
SMILES: N1C=CC2=C1C=CC=C2
InChI: InChI=1S/C8H7N/c1-2-4-8-7(3-1)5-6-9-8/h1-6,9H
Instrument: Thermo Scientific Q-Exactive Focus
Instrument type: LC-ESI-ITFT
Ms type: MS2
Ion mode: POSITIVE
Ionization: ESI
Collision energy: 10
Column name: Acquity CSHC18
Retention time: 0.218 min
Base peak: 118.06513
Precursor m/z: 118.06513
Precursor type: [M+H]+
m/z	relative intensity
58.0656	10
59.0735	12
65.0391	2
72.0812	2
91.0545	74
117.0574	5
118.0653	999
118.0864	184
