Mass spectrum: 5-Hydroxyindoleacetic acid; LC-ESI-ITFT; MS2; CE: 10;  [M+H]+
Name: 5-Hydroxyindoleacetic acid
Class: Organoheterocyclic compounds; Indoles and derivatives; Indolyl carboxylic acids and derivatives
Formula: C10H9NO3
Exact mass: 191.05824
SMILES: OC(=O)CC1=CNC2=CC=C(O)C=C12
InChI: InChI=1S/C10H9NO3/c12-7-1-2-9-8(4-7)6(5-11-9)3-10(13)14/h1-2,4-5,11-12H,3H2,(H,13,14)
Instrument: Thermo Scientific Q-Exactive Focus
Instrument type: LC-ESI-ITFT
Ms type: MS2
Ion mode: POSITIVE
Ionization: ESI
Collision energy: 10
Column name: Acquity CSHC18
Retention time: 0.352 min
Base peak: 192.06552
Precursor m/z: 192.06552
Precursor type: [M+H]+
m/z	relative intensity
82.0142	1
86.993	1
100.0245	1
110.0088	14
118.0652	1
128.0192	64
146.0297	8
146.06	999
151.0351	3
192.0653	193
