Mass spectrum: Gamma-Glutamylcysteine; ESI-TOF; MS2; CE: 6.0000000;  [M+H]+
Name: Gamma-Glutamylcysteine
Class: NA
Formula: C8H14N2O5S
Exact mass: 250.06234
SMILES: NC(CCC(=O)NC(CS)C(O)=O)C(O)=O
InChI: InChI=1S/C8H14N2O5S/c9-4(7(12)13)1-2-6(11)10-5(3-16)8(14)15/h4-5,16H,1-3,9H2,(H,10,11)(H,12,13)(H,14,15)
Instrument: waters xevo g2 TOF
Instrument type: ESI-TOF
Ms type: MS2
Ion mode: POSITIVE
Ionization: ESI
Collision energy: 6.0000000
Column name: Acquity CSHC18
Retention time: 0.722 min
Base peak: 251.07034
Precursor m/z: 251.07034
Precursor type: [M+H]+
m/z	relative intensity
122.0274	256
138.9903	16
142.0321	4
188.0377	77
234.044	124
234.0443	55
251.0704	999
