Mass spectrum: Putative_Saponoside A; LC-ESI-QTOF; MS2; CE: 20-40eV;  [M+NH4]+
Name: Putative_Saponoside A
Class: Triterpene saponins
Formula: C54H84O25
Exact mass: 1132.5302
SMILES: CC1(C)CCC2(CCC3(C)C(=CCC4(C5(C)CCC(C(C)(C=O)C5(CCC43C)[H])(OC6(C(C(C(C(C(=O)O)(O6)[H])(O)[H])(O)[H])(O)[H])[H])[H])[H])C2(C1)[H])C(=O)OC7(C(C(C(C(COC8(C(C(C(C(CO)(O8)[H])(O)[H])(O)[H])(O)[H])[H])(O7)[H])(O)[H])(OC9(C(C(C(C(CO)(O9)[H])(O)[H])(O)[H])(O)[H])[H])[H])(O)[H])[H]
InChI: InChI=1S/C54H84O25/c1-49(2)13-15-54(48(71)79-47-40(68)41(77-45-38(66)34(62)31(59)25(19-56)74-45)32(60)26(75-47)20-72-44-37(65)33(61)30(58)24(18-55)73-44)16-14-52(5)22(23(54)17-49)7-8-28-50(3)11-10-29(51(4,21-57)27(50)9-12-53(28,52)6)76-46-39(67)35(63)36(64)42(78-46)43(69)70/h7,21,23-42,44-47,55-56,58-68H,8-20H2,1-6H3,(H,69,70)
Instrument: Impact II, Bruker; Dionex 3000, Thermo Scientific
Instrument type: LC-ESI-QTOF
Ms type: MS2
Ion mode: POSITIVE
Ionization: ESI
Collision energy: 20-40eV
Column name: Acquity CSHC18
Retention time: 13.379 min
Base peak: 1150.5650
Precursor m/z: 1150.5650
Precursor type: [M+NH4]+
Precursor intensity: 2476.88
m/z	relative intensity
263.057	646
281.0702	999
