Mass spectrum: Cholic Acid; LC-ESI-QTOF; MS2; CE: 15 / 50;  [M-2H2O+H]+
Name: Cholic Acid
Class: NA
Formula: C24H40O5
Exact mass: 408.28757
SMILES: CC(CCC(=O)O)C1CCC2C1(C(CC3C2C(CC4C3(CCC(C4)O)C)O)O)C
InChI: InChI=1S/C24H40O5/c1-13(4-7-21(28)29)16-5-6-17-22-18(12-20(27)24(16,17)3)23(2)9-8-15(25)10-14(23)11-19(22)26/h13-20,22,25-27H,4-12H2,1-3H3,(H,28,29)
Instrument: impact II
Instrument type: LC-ESI-QTOF
Ms type: MS2
Ion mode: POSITIVE
Ionization: ESI
Collision energy: 15 / 50
Column name: Acquity CSHC18
Retention time: 0.572 min
Base peak: 373.27400
Precursor m/z: 373.27400
Precursor type: [M-2H2O+H]+
m/z	relative intensity
355.7656	999
373.7762	999
