Mass spectrum: Pyrocatechol; LC-ESI-ITFT; MS2; CE: 30;  [M-H]-
Name: Pyrocatechol
Class: Benzenoids; Phenols; Benzenediols
Formula: C6H6O2
Exact mass: 110.03678
SMILES: OC1=CC=CC=C1O
InChI: InChI=1S/C6H6O2/c7-5-3-1-2-4-6(5)8/h1-4,7-8H
Instrument: Thermo Scientific Q-Exactive Focus
Instrument type: LC-ESI-ITFT
Ms type: MS2
Ion mode: NEGATIVE
Ionization: ESI
Collision energy: 30
Column name: Acquity CSHC18
Retention time: 0.926 min
Base peak: 109.02950
Precursor m/z: 109.02950
Precursor type: [M-H]-
m/z	relative intensity
63.0229	17
65.0021	367
80.0255	42
91.0177	257
91.664	17
92.2838	15
108.0205	999
109.0283	235
116.4383	15
117.187	16
