Mass spectrum: 1,1-Dimethylbiguanide; ESI-TOF; MS2; CE: 6.0000000;  [M+H]+
Name: 1,1-Dimethylbiguanide
Class: NA
Formula: C4H11N5
Exact mass: 129.10145
SMILES: CN(C)C(=N)NC(N)=N
InChI: InChI=1S/C4H11N5/c1-9(2)4(7)8-3(5)6/h1-2H3,(H5,5,6,7,8)
Instrument: waters xevo g2 TOF
Instrument type: ESI-TOF
Ms type: MS2
Ion mode: POSITIVE
Ionization: ESI
Collision energy: 6.0000000
Column name: Acquity CSHC18
Retention time: 0.520 min
Base peak: 130.10945
Precursor m/z: 130.10945
Precursor type: [M+H]+
m/z	relative intensity
60.0566	35
71.0612	12
85.0516	48
88.0877	36
98.9624	1
107.034	3
114.0852	34
116.094	3
125.9854	1
130.5426	999
132.1126	25
139.9764	3
140.9957	4
141.9591	69
143.0022	1
152.0002	11
163.976	3
169.0953	1
183.0034	4
185.0105	1
186.9835	1
271.1049	5
283.168	4
310.1265	14
312.1222	329
313.125	68
315.1301	6
343.1628	7
437.2291	1
494.1354	1
512.1484	1
623.2377	3
