Mass spectrum: Acetamide; LC-ESI-ITFT; MS2; CE: 10;  [M+H]+
Name: Acetamide
Class: Organic acids and derivatives; Carboximidic acids and derivatives; Carboximidic acids
Formula: C2H5NO
Exact mass: 59.03711
SMILES: CC(N)=O
InChI: InChI=1S/C2H5NO/c1-2(3)4/h1H3,(H2,3,4)
Instrument: Thermo Scientific Q-Exactive Focus
Instrument type: LC-ESI-ITFT
Ms type: MS2
Ion mode: POSITIVE
Ionization: ESI
Collision energy: 10
Column name: Acquity CSHC18
Retention time: 0.178 min
Base peak: 60.04439
Precursor m/z: 60.04439
Precursor type: [M+H]+
m/z	relative intensity
60.0449	999
60.0813	1
