Mass spectrum: Gibberellin A1; LC-ESI-QTOF; MS2; CE: 50eV;  [M-H]-
Name: Gibberellin A1
Class: Diterpene
Formula: C19H24O6
Exact mass: 348.1573
SMILES: CC12C(CCC3(C1C(C45C3CCC(C4)(C(=C)C5)O)C(=O)O)OC2=O)O
InChI: InChI=1S/C19H24O6/c1-9-7-17-8-18(9,24)5-3-10(17)19-6-4-11(20)16(2,15(23)25-19)13(19)12(17)14(21)22/h10-13,20,24H,1,3-8H2,2H3,(H,21,22)
Instrument: TIMS-TOF Pro, Bruker Daltonik; Elute UHPLC System, Bruker Daltonik
Instrument type: LC-ESI-QTOF
Ms type: MS2
Ion mode: NEGATIVE
Ionization: ESI
Collision energy: 50eV
Column name: Acquity CSHC18
Retention time: 5.300 min
Base peak: 347.1435
Precursor m/z: 347.1435
Precursor type: [M-H]-
Precursor intensity: 100784.6
m/z	relative intensity
41.0019	22
42.005	8
43.0181	44
51.0219	4
55.0178	16
57.035	9
57.8077	6
69.0227	8
71.0526	5
73.0292	18
76.8204	6
79.053	8
83.0509	24
85.0638	5
95.0477	5
101.5309	4
105.07	6
107.0845	20
109.0654	7
117.0709	8
118.1293	7
123.8926	5
128.7409	5
130.0412	6
132.0538	8
133.064	7
135.0787	9
141.0738	5
143.0829	18
144.0881	15
145.0996	106
146.1032	8
148.0594	4
149.053	5
157.0677	11
158.0652	5
161.0937	8
170.076	4
170.7944	5
173.0945	12
176.0706	4
176.4222	5
179.5396	5
183.0745	7
185.1161	8
186.1014	6
199.1107	9
200.1199	4
201.1249	8
203.1409	5
204.1481	8
206.9875	5
208.9521	9
211.1092	4
215.1397	7
221.129	4
222.1384	5
229.119	16
230.1249	5
239.1477	5
240.1436	12
241.1452	45
242.1575	17
259.1661	72
260.1686	31
273.1074	32
274.112	9
285.1458	35
286.1451	14
301.1421	8
302.1389	5
303.1552	60
304.1581	19
305.1598	6
308.0906	5
329.1341	17
330.136	11
346.1336	20
347.1523	999
347.3961	4
