Mass spectrum: 1,3-Dimethylxanthine; LC-ESI-QTOF; MS2; CE: 15.00;  [M+H]+
Name: 1,3-Dimethylxanthine
Class: NA
Formula: C7H8N4O2
Exact mass: 180.0647
SMILES: CN1C2=C(C(=O)N(C1=O)C)NC=N2
InChI: InChI=1S/C7H8N4O2/c1-10-5-4(8-3-9-5)6(12)11(2)7(10)13/h3H,1-2H3,(H,8,9)
Instrument: Bruker MicrOTOF-Q
Instrument type: LC-ESI-QTOF
Ms type: MS2
Ion mode: POSITIVE
Ionization: ESI
Collision energy: 15.00
Column name: Acquity CSHC18
Retention time: NA
Base peak: 181.0720
Precursor m/z: 181.0720
Precursor type: [M+H]+
m/z	relative intensity
124.0489	30
125.0513	89
181.0721	481
182.0744	999
