Mass spectrum: Syringic acid; LC-ESI-QTOF; MS2; CE: 50eV;  [M-H]-
Name: Syringic acid
Class: benzoic acid derivative
Formula: C9H10O5
Exact mass: 198.0528
SMILES: COC1=CC(=CC(=C1O)OC)C(=O)O
InChI: InChI=1S/C9H10O5/c1-13-6-3-5(9(11)12)4-7(14-2)8(6)10/h3-4,10H,1-2H3,(H,11,12)
Instrument: TIMS-TOF Pro, Bruker Daltonik; Elute UHPLC System, Bruker Daltonik
Instrument type: LC-ESI-QTOF
Ms type: MS2
Ion mode: NEGATIVE
Ionization: ESI
Collision energy: 50eV
Column name: Acquity CSHC18
Retention time: 4.513 min
Base peak: 197.0416
Precursor m/z: 197.0416
Precursor type: [M-H]-
Precursor intensity: 1431.67
m/z	relative intensity
95.0121	596
97.019	241
123.0074	648
124.0079	260
138.0315	999
166.9945	970
167.9985	258
