Mass spectrum: 3,5-DIIODO-L-THYRONINE; LC-ESI-QFT; MS2; CE: 30eV;  [M-H]-
Name: 3,5-DIIODO-L-THYRONINE
Class: NA
Formula: C15H13I2NO4
Exact mass: 524.89340
SMILES: NC(CC1=CC(I)=C(OC2=CC=C(O)C=C2)C(I)=C1)C(O)=O
InChI: InChI=1S/C15H13I2NO4/c16-11-5-8(7-13(18)15(20)21)6-12(17)14(11)22-10-3-1-9(19)2-4-10/h1-6,13,19H,7,18H2,(H,20,21)
Instrument: Q-Exactive Orbitrap, Thermo Scientfic; Ultimate 3000 HPLC, Thermo Scientfic
Instrument type: LC-ESI-QFT
Ms type: MS2
Ion mode: NEGATIVE
Ionization: ESI
Collision energy: 30eV
Column name: Acquity CSHC18
Retention time: 7.849 min
Base peak: 523.8861
Precursor m/z: 523.8861
Precursor type: [M-H]-
Precursor intensity: 109
m/z	relative intensity
72.0076	55
86.0751	1
109.3225	1
126.9036	999
215.6232	1
222.0559	2
224.0714	2
279.2655	1
297.6133	1
322.9573	9
352.4358	1
379.9568	1
430.507	1
463.7766	1
502.977	1
506.8613	10
533.2642	1
