Mass spectrum: 3,4-Dihydroxycinnamic acid; LC-ESI-QTOF; MS2; CE: 15;  [M-H]-
Name: 3,4-Dihydroxycinnamic acid
Class: NA
Formula: C9H8O4
Exact mass: 180.0423
SMILES: C1=CC(=C(C=C1C=CC(=O)O)O)O
InChI: InChI=1S/C9H8O4/c10-7-3-1-6(5-8(7)11)2-4-9(12)13/h1-5,10-11H,(H,12,13)
Instrument: Bruker MicrOTOF-Q
Instrument type: LC-ESI-QTOF
Ms type: MS2
Ion mode: NEGATIVE
Ionization: ESI
Collision energy: 15
Column name: Acquity CSHC18
Retention time: NA
Base peak: 179.0350
Precursor m/z: 179.0350
Precursor type: [M-H]-
m/z	relative intensity
44.8003	46
45.2159	31
45.9241	49
47.6668	35
48.5046	38
49.5843	37
50.7438	44
51.4758	48
52.3497	34
53.0247	39
53.7985	34
54.4413	44
55.8343	32
56.5343	33
57.6074	26
58.8646	33
59.5246	24
60.1058	28
60.6784	27
61.5788	31
62.8948	39
64.2844	54
65.1944	37
66.2565	64
67.5792	43
68.2618	29
69.7948	41
70.6547	25
72.1956	41
74.0193	36
74.4807	40
75.39	28
76.1423	41
76.8796	55
77.4015	37
77.8217	27
78.7052	29
80.0753	36
82.2404	46
85.3498	33
88.5326	54
89.334	60
90.0447	33
91.0786	40
92.241	27
92.9578	44
94.6973	35
95.702	44
96.1599	50
97.9096	27
98.7541	37
100.5615	50
101.601	39
102.3506	41
103.3547	27
103.9936	42
104.5629	41
105.7594	52
106.4834	40
107.0653	95
108.2829	62
110.8421	29
112.14	32
112.6932	50
113.3661	29
114.0521	29
115.2878	41
117.661	45
119.0347	31
119.761	39
120.9418	43
121.5406	44
122.0416	33
123.8904	48
124.8137	35
127.0063	52
128.3968	44
131.1761	38
132.4898	49
133.1195	46
133.8256	600
134.9939	999
136.099	216
137.9204	46
138.6636	76
145.1963	23
161.2488	31
175.7489	23
179.041	96
235.2379	42
258.6115	28
263.0773	23
272.8517	27
308.9622	34
333.1198	39
352.2712	24
376.4975	44
379.1977	23
399.6119	26
452.2624	31
572.6374	29
675.7343	40
705.3892	23
708.2619	35
822.2238	32
848.9369	36
906.9904	26
928.7856	40
947.7949	47
986.3618	34
