Mass spectrum: Arbutin; LC-ESI-QTOF; MS2; CE: 50eV;  [M-H]-
Name: Arbutin
Class: Quinone
Formula: C12H16O7
Exact mass: 272.0896
SMILES: C1=CC(=CC=C1O)OC2C(C(C(C(O2)CO)O)O)O
InChI: InChI=1S/C12H16O7/c13-5-8-9(15)10(16)11(17)12(19-8)18-7-3-1-6(14)2-4-7/h1-4,8-17H,5H2
Instrument: TIMS-TOF Pro, Bruker Daltonik; Elute UHPLC System, Bruker Daltonik
Instrument type: LC-ESI-QTOF
Ms type: MS2
Ion mode: NEGATIVE
Ionization: ESI
Collision energy: 50eV
Column name: Acquity CSHC18
Retention time: 1.694 min
Base peak: 271.0780
Precursor m/z: 271.0780
Precursor type: [M-H]-
Precursor intensity: 12175.56
m/z	relative intensity
54.7829	41
108.0195	999
109.028	106
