Mass spectrum: 2-Hydroxy-4-methylpentanoic acid; LC-ESI-QTOF; MS2; CE: -10, -35, -60V;  [M-H]-
Name: 2-Hydroxy-4-methylpentanoic acid
Class: NA
Formula: C6H12O3
Exact mass: 132.0786
SMILES: CC(C)CC(C(=O)O)O
InChI: InChI=1S/C6H12O3/c1-4(2)3-5(7)6(8)9/h4-5,7H,3H2,1-2H3,(H,8,9)
Instrument: TripleToF 5600; Sciex
Instrument type: LC-ESI-QTOF
Ms type: MS2
Ion mode: NEGATIVE
Ionization: ESI
Collision energy: -10, -35, -60V
Column name: Acquity CSHC18
Retention time: 9.076 min
Base peak: 131.0723
Precursor m/z: 131.0723
Precursor type: [M-H]-
Precursor intensity: 573978.1
m/z	relative intensity
69.0345	25
85.0651	665
86.0667	52
131.0714	999
