Mass spectrum: DIETHANOLAMINE; LC-ESI-QTOF; MS2; CE: 10;  [M+H]+
Name: DIETHANOLAMINE
Class: NA
Formula: C4H11NO2
Exact mass: 105.0790
SMILES: OCCNCCO
InChI: InChI=1S/C4H11NO2/c6-3-1-5-2-4-7/h5-7H,1-4H2
Instrument: Agilent 6530Â Q-TOF LC/MS
Instrument type: LC-ESI-QTOF
Ms type: MS2
Ion mode: POSITIVE
Ionization: ESI
Collision energy: 10
Column name: NA
Retention time: 0.200 min
Base peak: 106.08628
Precursor m/z: 106.08628
Precursor type: [M+H]+
Precursor intensity: 77.5
m/z	relative intensity
41.0397	44
42.0343	87
43.0542	97
44.0495	425
45.0346	444
68.0505	528
70.0654	672
88.0752	868
106.0855	999
