Mass spectrum: Tirotundifolin B; LC-ESI-ITFT; MS2; CE: 50eV;  [M+H]+
Name: Tirotundifolin B
Class: Sesquiterpenelactone; Eudesmanolide
Formula: C20H26O6
Exact mass: 362.1729
SMILES: CC(O)C(=C)C(=O)O[C@@H]1C[C@@]3(C)[C@H](O)CCC(C)=C3[C@H]2OC(=O)C(=C)[C@H]12
InChI: InChI=1S/C20H26O6/c1-9-6-7-14(22)20(5)8-13(25-18(23)10(2)12(4)21)15-11(3)19(24)26-17(15)16(9)20/h12-15,17,21-22H,2-3,6-8H2,1,4-5H3/t12?,13-,14-,15-,17+,20+/m1/s1
Instrument: Q Exactive Plus, ThermoFisher Scientific
Instrument type: LC-ESI-ITFT
Ms type: MS2
Ion mode: POSITIVE
Ionization: ESI
Collision energy: 50eV
Column name: Acquity CSHC18
Retention time: 6.213 min
Base peak: 363.1794
Precursor m/z: 363.1794
Precursor type: [M+H]+
Precursor intensity: 24901380
m/z	relative intensity
59.3463	5
68.6664	23
143.0856	26
157.1001	25
159.1178	19
167.0844	4
173.0602	35
173.1331	16
175.0743	18
181.1005	5
183.1168	658
185.1332	4
187.0739	13
193.1008	19
201.1277	191
211.1104	91
219.138	47
229.121	999
247.1336	679
265.1442	6
318.0577	4
345.1716	4
363.175	492
