Mass spectrum: Adenine; LC-ESI-ITFT; MS2; CE: 100;  [M+H]+
Name: Adenine
Class: Organoheterocyclic compounds; Imidazopyrimidines; Purines and purine derivatives
Formula: C5H5N5
Exact mass: 135.05450
SMILES: NC1=C2NC=NC2=NC=N1
InChI: InChI=1S/C5H5N5/c6-4-3-5(9-1-7-3)10-2-8-4/h1-2H,(H3,6,7,8,9,10)
Instrument: Thermo Scientific Q-Exactive Focus
Instrument type: LC-ESI-ITFT
Ms type: MS2
Ion mode: POSITIVE
Ionization: ESI
Collision energy: 100
Column name: Acquity CSHC18
Retention time: 2.441 min
Base peak: 136.06177
Precursor m/z: 136.06177
Precursor type: [M+H]+
m/z	relative intensity
53.998	999
55.2354	46
57.8448	46
60.1282	45
64.2992	45
76.622	45
78.7581	49
83.3221	45
92.5242	88
153.2985	50
