Mass spectrum: Chlorogenin; APCI-ITFT; MS2; CE: 35 CID;  [M+H]+
Name: Chlorogenin
Class: NA
Formula: C27H44O4
Exact mass: 432.32396
SMILES: CC1CCC2(C(C3C(O2)CC4C3(CCC5C4CC(C6C5(CCC(C6)O)C)O)C)C)OC1
InChI: InChI=1S/C27H44O4/c1-15-5-10-27(30-14-15)16(2)24-23(31-27)13-20-18-12-22(29)21-11-17(28)6-8-25(21,3)19(18)7-9-26(20,24)4/h15-24,28-29H,5-14H2,1-4H3
Instrument: Orbitrap Elite
Instrument type: APCI-ITFT
Ms type: MS2
Ion mode: POSITIVE
Ionization: APCI
Collision energy: 35 CID
Column name: Acquity CSHC18
Retention time: 0.079 min
Base peak: 433.32990
Precursor m/z: 433.32990
Precursor type: [M+H]+
Precursor intensity: 45088570
m/z	relative intensity
131.0862	2
132.0894	1
139.1125	1
143.086	2
145.1019	3
147.1167	4
149.133	1
157.101	4
159.1159	5
161.1339	2
163.1114	2
164.1157	2
167.107	2
168.1112	2
171.1172	3
173.1333	4
175.1107	1
177.1642	1
181.1211	4
182.125	2
185.1324	1
187.1481	1
198.1364	1
201.1645	2
211.1491	2
213.163	11
214.167	15
229.1574	1
230.1606	1
231.1735	5
232.1775	8
251.178	2
252.181	4
253.1951	51
254.1979	1
255.2095	4
269.1882	6
270.192	15
271.2056	289
272.2096	5
273.2196	8
280.2147	3
283.2401	50
287.1992	10
288.2046	19
289.2163	999
290.2197	10
291.2212	2
298.223	9
299.2297	1
301.2498	27
305.2109	2
306.2122	3
308.2111	1
315.2312	4
316.2329	11
317.24	1
322.2229	1
326.2176	2
333.243	14
334.2449	58
335.2462	6
340.235	6
344.2324	1
358.2433	4
358.2839	3
360.2702	1
361.2901	1
374.2766	2
378.286	9
379.298	6
396.2979	32
397.309	11
414.306	136
415.3209	47
