Mass spectrum: salycilic acid; LC-ESI-ITFT; MS2; CE: 45eV;  [M+H]+
Name: salycilic acid
Class: phenolic acid
Formula: C7H6O3
Exact mass: 138.0317
SMILES: C1=CC=C(C(=C1)C(=O)O)O
InChI: InChI=1S/C7H6O3/c8-6-4-2-1-3-5(6)7(9)10/h1-4,8H,(H,9,10)
Instrument: LTQ Orbitrap XL, Thermo Scientfic; Dionex Ultimate 300
Instrument type: LC-ESI-ITFT
Ms type: MS2
Ion mode: POSITIVE
Ionization: ESI
Collision energy: 45eV
Column name: Alltima C18
Retention time: 14 min
Base peak: 139.0384
Precursor m/z: 139.0384
Precursor type: [M+H]+
m/z	relative intensity
82.933	839
110.9788	999
