Mass spectrum: Gallic acid; LC-ESI-ITFT; MS2; CE: 100;  [M-H]-
Name: Gallic acid
Class: Benzenoids; Benzene and substituted derivatives; Benzoic acids and derivatives
Formula: C7H6O5
Exact mass: 170.02152
SMILES: OC(=O)C1=CC(O)=C(O)C(O)=C1
InChI: InChI=1S/C7H6O5/c8-4-1-3(7(11)12)2-5(9)6(4)10/h1-2,8-10H,(H,11,12)
Instrument: Thermo Scientific Q-Exactive Focus
Instrument type: LC-ESI-ITFT
Ms type: MS2
Ion mode: NEGATIVE
Ionization: ESI
Collision energy: 100
Column name: Acquity CSHC18
Retention time: 2.584 min
Base peak: 169.01425
Precursor m/z: 169.01425
Precursor type: [M-H]-
m/z	relative intensity
62.5452	787
69.4742	880
69.9093	779
70.7443	924
100.4009	879
100.6888	918
136.8887	794
153.8299	862
157.0763	999
182.9172	793
