Mass spectrum: MYOINOSITOL; LC-ESI-QTOF; MS2; CE: 40;  [M-H]-
Name: MYOINOSITOL
Class: NA
Formula: C6H12O6
Exact mass: 180.06339
SMILES: O[C@H]1[C@H](O)[C@@H](O)[C@H](O)[C@H](O)[C@@H]1O
InChI: InChI=1S/C6H12O6/c7-1-2(8)4(10)6(12)5(11)3(1)9/h1-12H/t1-,2-,3-,4+,5-,6-
Instrument: Agilent 6530Â Q-TOF LC/MS
Instrument type: LC-ESI-QTOF
Ms type: MS2
Ion mode: NEGATIVE
Ionization: ESI
Collision energy: 40
Column name: NA
Retention time: 0.200 min
Base peak: 179.05771
Precursor m/z: 179.05771
Precursor type: [M-H]-
Precursor intensity: 118
m/z	relative intensity
41.0199	114
43.0291	131
45.0099	132
49.0029	143
51.0286	151
53.0075	216
55.0305	241
57.0122	265
58.0027	309
59.0061	405
68.9984	588
71.0231	604
73.0257	645
75.004	726
87.0218	999
