Mass spectrum: Eriodictyol; LC-ESI-QTOF; MS2; CE: 50eV;  [M+H]+
Name: Eriodictyol
Class: Flavanone
Formula: C15H12O6
Exact mass: 288.0634
SMILES: C1C(OC2=CC(=CC(=C2C1=O)O)O)C3=CC(=C(C=C3)O)O
InChI: InChI=1S/C15H12O6/c16-8-4-11(19)15-12(20)6-13(21-14(15)5-8)7-1-2-9(17)10(18)3-7/h1-5,13,16-19H,6H2
Instrument: TIMS-TOF Pro, Bruker Daltonik; Elute UHPLC System, Bruker Daltonik
Instrument type: LC-ESI-QTOF
Ms type: MS2
Ion mode: POSITIVE
Ionization: ESI
Collision energy: 50eV
Column name: Acquity CSHC18
Retention time: 6.635 min
Base peak: 289.0671
Precursor m/z: 289.0671
Precursor type: [M+H]+
Precursor intensity: 209612.5
m/z	relative intensity
17.9723	2
19.0106	7
43.0183	4
51.016	7
64.7043	6
67.018	16
69.0345	24
74.2304	9
86.8477	10
89.0378	64
90.0407	13
93.0341	10
97.029	15
105.0331	11
107.0492	26
111.0085	21
117.0343	52
124.0484	8
135.0214	12
135.0435	54
136.0465	6
145.0286	24
152.9919	24
153.0174	982
154.0219	48
163.0385	999
164.0428	37
164.4393	8
171.0311	5
179.0323	86
186.4248	1
187.0384	41
205.0501	23
223.0595	5
243.0645	5
247.0608	14
258.2857	8
271.0592	30
272.0606	6
289.0483	30
289.0671	964
289.5529	5
