Mass spectrum: Anthocyanin.A4; LC-ESI-ITFT; MS2; CE: 30;  [M]+
Name: Anthocyanin.A4
Class: NA
Formula: [C43H49O24]+
Exact mass: 949.2608
SMILES: c1(cc(c2c(c1)[o+]c(c(c2)O[C@@H]1O[C@@H]([C@H]([C@@H](O)[C@@H]1O[C@H]1OC[C@@H](O)[C@@H](O)[C@@H]1OC(=O)/C=C/c1cc(c(c(c1)OC)O)OC)O)CO)c1ccc(c(c1)O)O)O[C@@H]1O[C@@H]([C@@H](O)[C@H](O)[C@@H]1O)CO)O
InChI: InChI=1S/C43H48O24/c1-58-25-7-16(8-26(59-2)32(25)52)3-6-30(50)66-39-31(51)22(49)15-60-42(39)67-40-36(56)34(54)29(14-45)65-43(40)63-27-12-19-23(61-38(27)17-4-5-20(47)21(48)9-17)10-18(46)11-24(19)62-41-37(57)35(55)33(53)28(13-44)64-41/h3-12,22,28-29,31,33-37,39-45,49,51,53-57H,13-15H2,1-2H3,(H3-,46,47,48,50,52)/p+1/t22-,28-,29-,31-,33-,34-,35+,36-,37+,39+,40+,41-,42-,43-/m1/s1
Instrument: q exactive focus thermo
Instrument type: LC-ESI-ITFT
Ms type: MS2
Ion mode: POSITIVE
Ionization: ESI
Collision energy: 30
Column name: Acquity CSHC18
Retention time: 5.225 min
Base peak: 949.2559
Precursor m/z: 949.2559
Precursor type: [M]+
Precursor intensity: 135214.8
m/z	relative intensity
101.0064	24
102.9597	28
103.9526	29
105.951	31
107.0241	34
107.9771	37
109.0514	37
110.0658	48
112.0581	48
113.0017	49
114.097	63
116.9834	66
117.9584	67
118.0647	67
118.955	73
121.0949	76
123.0986	76
123.9548	78
125.0132	81
128.0564	90
129.0862	105
129.9659	111
131.963	114
133.0478	158
133.9637	162
136.0289	166
138.036	167
139.9993	211
142.0886	230
144.0908	231
149.0394	274
171.0487	283
172.0154	291
191.0888	372
194.0926	568
224.8885	999
