Mass spectrum: 4-Androsten-11Beta-ol-3, 17-dione; ESI-TOF; MS2; CE: 6.0000000;  [M+H]+
Name: 4-Androsten-11Beta-ol-3, 17-dione
Class: NA
Formula: C19H26O3
Exact mass: 302.18819
SMILES: O=C4\C=C3/[C@@](C)([C@H]2[C@@H](O)C[C@@]1(C(=O)CC[C@H]1[C@@H]2CC3)C)CC4
InChI: InChI=1S/C19H26O3/c1-18-8-7-12(20)9-11(18)3-4-13-14-5-6-16(22)19(14,2)10-15(21)17(13)18/h9,13-15,17,21H,3-8,10H2,1-2H3/t13-,14-,15-,17+,18-,19-/m0/s1
Instrument: waters xevo g2 TOF
Instrument type: ESI-TOF
Ms type: MS2
Ion mode: POSITIVE
Ionization: ESI
Collision energy: 6.0000000
Column name: Acquity CSHC18
Retention time: 3.079 min
Base peak: 303.19619
Precursor m/z: 303.19619
Precursor type: [M+H]+
m/z	relative intensity
121.0647	4
123.0808	6
145.1013	4
147.0812	1
151.1121	4
163.1116	3
171.1166	1
175.1117	3
185.1323	1
189.1275	4
195.1169	4
197.0969	1
209.1315	2
212.1083	1
213.1367	2
224.054	2
225.164	1
227.1432	4
239.1433	13
240.1469	2
243.1742	5
249.1642	5
257.1523	6
267.1744	51
268.1773	10
285.1856	147
286.1888	31
287.1918	3
303.267	999
304.1997	450
