Mass spectrum: 15(S)-Fluprostenol; ESI-TOF; MS2; CE: 6.0000000;  [M+H]+
Name: 15(S)-Fluprostenol
Class: NA
Formula: C23H29F3O6
Exact mass: 458.19162
SMILES: O[C@@H]1[C@H](C/C=C\CCCC(O)=O)[C@@H](/C=C/[C@H](O)COC2=CC(C(F)(F)F)=CC=C2)[C@H](O)C1
InChI: InChI=1S/C23H29F3O6/c24-23(25,26)15-6-5-7-17(12-15)32-14-16(27)10-11-19-18(20(28)13-21(19)29)8-3-1-2-4-9-22(30)31/h1,3,5-7,10-12,16,18-21,27-29H,2,4,8-9,13-14H2,(H,30,31)/b3-1-,11-10+/t16-,18+,19+,20-,21+/m0/s1
Instrument: waters xevo g2 TOF
Instrument type: ESI-TOF
Ms type: MS2
Ion mode: POSITIVE
Ionization: ESI
Collision energy: 6.0000000
Column name: Acquity CSHC18
Retention time: 3.651 min
Base peak: 459.19962
Precursor m/z: 459.19962
Precursor type: [M+H]+
m/z	relative intensity
77.0398	1
83.0496	1
93.0707	1
98.9616	1
101.9653	18
105.0701	9
117.0712	18
119.086	25
127.9803	21
129.0695	1
130.075	1
131.0856	32
135.0817	1
141.0695	1
142.0795	1
143.086	1
145.1019	35
147.0824	20
154.0771	1
155.0854	1
156.093	1
157.101	14
159.0996	11
161.0978	61
165.0713	1
166.0781	1
169.1017	1
171.1177	45
173.1157	8
177.0947	15
179.0884	1
181.1022	39
183.1176	57
192.0911	1
197.1331	84
199.112	62
201.1274	18
207.1253	195
210.0638	99
210.5684	9
217.1397	114
218.1264	9
219.102	76
225.1272	261
226.1312	12
233.1527	43
235.1645	9
243.1379	705
244.1432	85
245.1366	21
261.1486	449
262.1524	65
279.159	999
280.1619	143
281.1658	14
293.1756	32
333.1692	19
339.2466	10
405.1644	53
441.0966	9
451.0844	1
