Mass spectrum: adenosine 5'-monophosphate; LC-ESI-QTOF; MS2; CE: -10, -35, -60V;  [M-H]-
Name: adenosine 5'-monophosphate
Class: NA
Formula: C10H14N5O7P
Exact mass: 347.0631
SMILES: C1=NC(=C2C(=N1)N(C=N2)C3C(C(C(O3)COP(=O)(O)O)O)O)N
InChI: InChI=1S/C10H14N5O7P/c11-8-5-9(13-2-12-8)15(3-14-5)10-7(17)6(16)4(22-10)1-21-23(18,19)20/h2-4,6-7,10,16-17H,1H2,(H2,11,12,13)(H2,18,19,20)
Instrument: TripleToF 5600; Sciex
Instrument type: LC-ESI-QTOF
Ms type: MS2
Ion mode: NEGATIVE
Ionization: ESI
Collision energy: -10, -35, -60V
Column name: Acquity CSHC18
Retention time: 7.607 min
Base peak: 346.0551
Precursor m/z: 346.0551
Precursor type: [M-H]-
Precursor intensity: 4774.44
m/z	relative intensity
78.9567	999
346.0448	192
346.0553	935
