Mass spectrum: Aminocaproic acid; ESI-TOF; MS2; CE: 0.6458333;  [M+H]+
Name: Aminocaproic acid
Class: NA
Formula: C6H13NO2
Exact mass: 131.09463
SMILES: NCCCCCC(O)=O
InChI: InChI=1S/C6H13NO2/c7-5-3-1-2-4-6(8)9/h1-5,7H2,(H,8,9)
Instrument: waters xevo g2 TOF
Instrument type: ESI-TOF
Ms type: MS2
Ion mode: POSITIVE
Ionization: ESI
Collision energy: 0.6458333
Column name: Acquity CSHC18
Retention time: 0.559 min
Base peak: 132.10263
Precursor m/z: 132.10263
Precursor type: [M+H]+
m/z	relative intensity
67.0548	65
68.0501	2
69.0709	901
72.0808	14
73.0657	185
77.0399	116
79.0551	999
80.0585	75
84.0813	2
84.9459	22
86.0983	2
92.9672	2
96.0817	458
97.0656	308
98.0642	2
98.9628	589
102.0469	96
106.9934	2
111.9681	36
114.0283	888
115.0885	26
115.9645	2
117.9801	2
121.009	2
127.9564	21
130.0838	2
132.1024	210
133.1014	2
134.1077	2
137.9881	2
139.0087	156
143.9595	21
151.9228	69
154.0838	34
157.0186	47
164.8733	13
168.9828	2
170.0494	201
176.0661	98
178.122	2
183.9907	2
184.9999	60
186.0212	258
187.0292	259
187.9841	2
203.0248	79
206.9953	144
209.0114	301
215.0489	120
217.861	77
227.0501	2
231.0189	2
252.091	33
256.9078	2
258.8749	2
264.8732	2
269.1449	71
270.1052	43
272.1186	47
280.0239	73
287.1185	82
287.8883	2
288.8898	2
294.1006	2
298.0977	35
301.1429	2
309.1338	23
314.1132	2
316.1082	182
317.113	2
318.1164	2
319.1167	2
321.1122	2
323.1251	86
329.1459	2
338.0906	103
339.0963	2
347.945	2
354.0667	2
358.0053	16
363.7931	2
432.2337	2
447.2009	2
453.2113	2
469.1852	2
470.1872	45
488.1513	2
491.1663	40
501.1215	2
502.1346	19
518.1243	2
519.1286	2
622.2615	2
819.2524	2
964.3376	2
