Mass spectrum: 17-phenyl trinor Prostaglandin D2; ESI-TOF; MS2; CE: 6.0000000;  [M+H]+
Name: 17-phenyl trinor Prostaglandin D2
Class: NA
Formula: C23H30O5
Exact mass: 386.20932
SMILES: O[C@@H]1[C@H](C/C=C\CCCC(O)=O)[C@@H](/C=C/[C@@H](O)CCC2=CC=CC=C2)C(C1)=O
InChI: InChI=1S/C23H30O5/c24-18(13-12-17-8-4-3-5-9-17)14-15-20-19(21(25)16-22(20)26)10-6-1-2-7-11-23(27)28/h1,3-6,8-9,14-15,18-21,24-25H,2,7,10-13,16H2,(H,27,28)/b6-1-,15-14+/t18-,19+,20+,21-/m0/s1
Instrument: waters xevo g2 TOF
Instrument type: ESI-TOF
Ms type: MS2
Ion mode: POSITIVE
Ionization: ESI
Collision energy: 6.0000000
Column name: Acquity CSHC18
Retention time: 3.419 min
Base peak: 387.21732
Precursor m/z: 387.21732
Precursor type: [M+H]+
m/z	relative intensity
117.0709	192
131.0862	208
132.9594	37
144.0915	14
163.0949	12
177.1457	32
182.0969	26
183.0984	47
189.1275	8
195.0759	90
203.1055	74
204.0807	115
205.1033	27
207.1161	75
213.0847	196
213.5869	25
217.1114	44
249.1293	52
267.138	264
268.1415	38
297.1662	22
299.0976	12
305.1878	21
307.1698	16
315.1753	110
316.1786	23
317.1013	35
333.185	591
334.1882	120
335.1915	10
336.0644	20
351.1955	999
352.2003	268
353.2027	34
369.206	488
370.2098	126
