Mass spectrum: URIDINE; LC-ESI-QFT; MS2; CE: 30eV;  [M+H]+
Name: URIDINE
Class: NA
Formula: C9H12N2O6
Exact mass: 244.06954
SMILES: OC[C@H]1O[C@H]([C@H](O)[C@@H]1O)N1C=CC(=O)NC1=O
InChI: InChI=1S/C9H12N2O6/c12-3-4-6(14)7(15)8(17-4)11-2-1-5(13)10-9(11)16/h1-2,4,6-8,12,14-15H,3H2,(H,10,13,16)/t4-,6-,7-,8-/m1/s1
Instrument: Q-Exactive Orbitrap, Thermo Scientfic; Ultimate 3000 HPLC, Thermo Scientfic
Instrument type: LC-ESI-QFT
Ms type: MS2
Ion mode: POSITIVE
Ionization: ESI
Collision energy: 30eV
Column name: Acquity CSHC18
Retention time: 0.813 min
Base peak: 245.0768
Precursor m/z: 245.0768
Precursor type: [M+H]+
Precursor intensity: 138
m/z	relative intensity
51.8567	3
53.0028	4
53.5942	3
55.0186	6
56.897	3
57.0342	8
60.0102	3
61.0292	6
63.5785	3
64.6266	3
67.9086	3
69.0341	6
70.0295	9
70.3445	3
70.4958	4
73.0291	19
85.0291	7
87.0447	5
88.7764	4
88.8004	5
96.0086	5
97.029	5
105.7058	4
113.035	999
114.0384	9
115.0395	25
128.4637	6
131.0464	4
133.0498	25
135.8925	4
141.9358	4
145.449	4
191.998	4
229.5143	4
255.2837	4
