Mass spectrum: 2,3-dihydroxybenzoic acid; LC-ESI-QTOF; MS2; CE: 15.00;  [M-H]-
Name: 2,3-dihydroxybenzoic acid
Class: NA
Formula: C12H14O8
Exact mass: 286.0689
SMILES: C1C(C(C(C(O1)OC2=CC=CC(=C2O)C(=O)O)O)O)O
InChI: InChI=1S/C12H14O8/c13-6-4-19-12(10(16)9(6)15)20-7-3-1-2-5(8(7)14)11(17)18/h1-3,6,9-10,12-16H,4H2,(H,17,18)
Instrument: Bruker MicrOTOF-Q
Instrument type: LC-ESI-QTOF
Ms type: MS2
Ion mode: NEGATIVE
Ionization: ESI
Collision energy: 15.00
Column name: Acquity CSHC18
Retention time: NA
Base peak: 285.0616
Precursor m/z: 285.0616
Precursor type: [M-H]-
m/z	relative intensity
62.0717	2
68.7042	3
108.0226	44
108.9563	4
109.0303	482
110.033	26
147.8898	1
151.0403	7
152.0122	151
152.8845	5
153.0188	999
153.292	4
153.3401	2
154.0231	62
154.6284	2
166.017	2
241.0737	4
283.5579	1
284.2231	3
285.061	537
285.3513	3
286.0638	66
