Mass spectrum: L-Homoserine; LC-ESI-ITFT; MS2; CE: 100;  [M-H]-
Name: L-Homoserine
Class: Organic acids and derivatives; Carboxylic acids and derivatives; Amino acids, peptides, and analogues
Formula: C4H9NO3
Exact mass: 119.05824
SMILES: N[C@@H](CCO)C(O)=O
InChI: InChI=1S/C4H9NO3/c5-3(1-2-6)4(7)8/h3,6H,1-2,5H2,(H,7,8)/t3-/m0/s1
Instrument: Thermo Scientific Q-Exactive Focus
Instrument type: LC-ESI-ITFT
Ms type: MS2
Ion mode: NEGATIVE
Ionization: ESI
Collision energy: 100
Column name: Acquity CSHC18
Retention time: 2.318 min
Base peak: 118.05097
Precursor m/z: 118.05097
Precursor type: [M-H]-
m/z	relative intensity
61.2853	903
62.0148	999
66.4706	885
68.7549	987
71.4441	905
78.3854	913
119.1598	890
119.9473	978
122.269	985
125.5092	956
