Mass spectrum: Tyramine; ESI-TOF; MS2; CE: 6.0000000;  [M+H]+
Name: Tyramine
Class: NA
Formula: C8H11NO
Exact mass: 137.08406
SMILES: NCCC1=CC=C(O)C=C1
InChI: InChI=1S/C8H11NO/c9-6-5-7-1-3-8(10)4-2-7/h1-4,10H,5-6,9H2
Instrument: waters xevo g2 TOF
Instrument type: ESI-TOF
Ms type: MS2
Ion mode: POSITIVE
Ionization: ESI
Collision energy: 6.0000000
Column name: Acquity CSHC18
Retention time: 0.574 min
Base peak: 138.09206
Precursor m/z: 138.09206
Precursor type: [M+H]+
m/z	relative intensity
77.0398	23
79.0551	1
91.0553	12
92.0586	4
93.071	298
94.0742	24
96.9619	20
97.9697	24
103.0552	112
104.0585	10
117.9813	1
119.0504	1
120.0586	1
121.9207	999
124.0743	8
124.957	2
134.1193	1
135.0819	3
138.0404	263
139.0957	51
