Mass spectrum: Thymoquinone; LC-ESI-QTOF; MS2; CE: 15.00;  [M+H]+
Name: Thymoquinone
Class: NA
Formula: C10H12O2
Exact mass: 164.0837
SMILES: CC1=CC(=O)C(=CC1=O)C(C)C
InChI: InChI=1S/C10H12O2/c1-6(2)8-5-9(11)7(3)4-10(8)12/h4-6H,1-3H3
Instrument: Bruker MicrOTOF-Q
Instrument type: LC-ESI-QTOF
Ms type: MS2
Ion mode: POSITIVE
Ionization: ESI
Collision energy: 15.00
Column name: Acquity CSHC18
Retention time: NA
Base peak: 165.0910
Precursor m/z: 165.0910
Precursor type: [M+H]+
m/z	relative intensity
89.8039	2
109.0748	5
115.0501	7
117.0701	2
119.0831	12
120.0859	2
122.0717	6
123.0424	13
124.051	64
125.0545	9
127.0657	3
128.0626	6
129.0676	3
130.0756	2
131.0458	18
132.0554	53
133.0544	2
134.0691	1
135.0378	2
135.0853	2
136.4395	1
136.9126	2
137.0589	999
137.2166	4
137.2689	2
137.3148	3
137.3799	3
137.5944	1
137.9621	1
138.0635	63
138.9776	1
139.0647	4
145.0581	1
147.0772	6
147.1153	3
149.0515	8
150.0692	17
151.0782	4
164.0734	4
165.0911	17
172.9937	1
337.7561	2
350.3333	2
