Mass spectrum: N-Alpha-acetyllysine; LC-ESI-ITFT; MS2; CE: 100;  [M-H]-
Name: N-Alpha-acetyllysine
Class: Organic acids and derivatives; Carboxylic acids and derivatives; Amino acids, peptides, and analogues
Formula: C8H16N2O3
Exact mass: 188.11609
SMILES: CC(=O)NC(CCCCN)C(O)=O
InChI: InChI=1S/C8H16N2O3/c1-6(11)10-7(8(12)13)4-2-3-5-9/h7H,2-5,9H2,1H3,(H,10,11)(H,12,13)
Instrument: Thermo Scientific Q-Exactive Focus
Instrument type: LC-ESI-ITFT
Ms type: MS2
Ion mode: NEGATIVE
Ionization: ESI
Collision energy: 100
Column name: Acquity CSHC18
Retention time: 2.583 min
Base peak: 187.10883
Precursor m/z: 187.10883
Precursor type: [M-H]-
m/z	relative intensity
78.0238	824
80.7594	840
83.7774	950
126.7736	909
129.267	861
165.9904	820
176.9488	853
177.8807	844
178.2464	857
189.9652	999
