Mass spectrum: 8-Hydroxy-9,10-epoxystearic acid; LC-ESI-QTOF; MS2; CE: 20-40eV;  [M+H]+
Name: 8-Hydroxy-9,10-epoxystearic acid
Class: Fatty acid
Formula: C18H34O4
Exact mass: 314.2457
SMILES: CCCCCCCCC1C(C(CCCCCCC(=O)O)O)O1
InChI: InChI=1S/C18H34O4/c1-2-3-4-5-6-10-13-16-18(22-16)15(19)12-9-7-8-11-14-17(20)21/h15-16,18-19H,2-14H2,1H3,(H,20,21)
Instrument: Impact II, Bruker; Dionex 3000, Thermo Scientific
Instrument type: LC-ESI-QTOF
Ms type: MS2
Ion mode: POSITIVE
Ionization: ESI
Collision energy: 20-40eV
Column name: Acquity CSHC18
Retention time: 16.236 min
Base peak: 315.2524
Precursor m/z: 315.2524
Precursor type: [M+H]+
Precursor intensity: 2570.88
m/z	relative intensity
95.0848	999
97.101	150
109.1002	475
123.1151	147
125.0942	192
159.1171	137
237.9449	127
279.232	290
282.2751	222
297.2408	137
297.2835	130
