Mass spectrum: N,N-DIMETHYLARGININE; LC-ESI-QFT; MS2; CE: 30eV;  [M-H]-
Name: N,N-DIMETHYLARGININE
Class: NA
Formula: C8H18N4O2
Exact mass: 202.14298
SMILES: CN(C)C(=NCCCC(C(=O)O)N)N
InChI: InChI=1S/C8H18N4O2/c1-12(2)8(10)11-5-3-4-6(9)7(13)14/h6H,3-5,9H2,1-2H3,(H2,10,11)(H,13,14)
Instrument: Q-Exactive Orbitrap, Thermo Scientfic; Ultimate 3000 HPLC, Thermo Scientfic
Instrument type: LC-ESI-QFT
Ms type: MS2
Ion mode: NEGATIVE
Ionization: ESI
Collision energy: 30eV
Column name: Acquity CSHC18
Retention time: 0.579 min
Base peak: 201.1357
Precursor m/z: 201.1357
Precursor type: [M-H]-
Precursor intensity: 174
m/z	relative intensity
51.8524	2
58.6913	2
67.0286	5
75.2529	2
79.2319	2
86.0707	15
88.9865	13
99.9357	3
110.0708	16
110.9685	28
112.0865	36
113.0706	18
113.0898	3
113.951	4
114.0546	374
114.7179	2
115.0579	16
116.927	14
127.9304	23
138.0658	24
144.9421	2
145.9413	2
156.0766	999
157.0736	10
157.0797	49
157.9415	3
163.8384	27
164.835	328
165.8354	16
166.832	98
170.5768	2
200.8046	18
201.1348	368
201.8012	294
202.1383	17
