Mass spectrum: SACCHARATE; LC-ESI-QFT; MS2; CE: 30eV;  [M-H]-
Name: SACCHARATE
Class: NA
Formula: C6H10O8
Exact mass: 210.03757
SMILES: OC(C(O)C(O)C(O)=O)C(O)C(O)=O
InChI: InChI=1S/C6H10O8/c7-1(3(9)5(11)12)2(8)4(10)6(13)14/h1-4,7-10H,(H,11,12)(H,13,14)
Instrument: Q-Exactive Orbitrap, Thermo Scientfic; Ultimate 3000 HPLC, Thermo Scientfic
Instrument type: LC-ESI-QFT
Ms type: MS2
Ion mode: NEGATIVE
Ionization: ESI
Collision energy: 30eV
Column name: Acquity CSHC18
Retention time: 0.565 min
Base peak: 209.0303
Precursor m/z: 209.0303
Precursor type: [M-H]-
Precursor intensity: 173
m/z	relative intensity
55.0174	3
57.033	89
58.658	1
59.0123	74
60.0156	2
61.6674	1
61.9867	26
68.9966	3
71.0123	77
72.9915	16
73.0279	4
75.0072	29
81.0442	38
82.0605	1
83.0121	2
85.0279	999
86.0313	31
87.0072	13
89.0228	57
90.0263	2
99.0073	4
99.9242	2
101.0228	9
101.9393	11
102.1376	2
102.9396	3
103.0022	25
105.437	1
111.0072	53
115.0021	13
115.4486	1
117.9342	4
121.9703	1
122.9054	9
125.0342	9
127.8687	20
129.0178	80
129.8659	8
133.0128	102
134.0163	2
140.9161	8
145.0129	3
145.9296	2
146.4075	1
147.0285	36
164.835	4
165.843	2
166.0222	3
173.008	16
174.809	1
180.9918	2
191.0187	235
192.0221	12
196.1571	1
204.0669	2
208.8234	1
209.0295	187
210.0329	11
