Mass spectrum: Oxo-phytodienoic acid; LC-ESI-QTOF; MS2; CE: 15.00;  [M+H]+
Name: Oxo-phytodienoic acid
Class: NA
Formula: C18H28O3
Exact mass: 292.2038
SMILES: CCC=CCC1C(C=CC1=O)CCCCCCCC(=O)O
InChI: InChI=1S/C18H28O3/c1-2-3-7-11-16-15(13-14-17(16)19)10-8-5-4-6-9-12-18(20)21/h3,7,13-16H,2,4-6,8-12H2,1H3,(H,20,21)
Instrument: Bruker MicrOTOF-Q
Instrument type: LC-ESI-QTOF
Ms type: MS2
Ion mode: POSITIVE
Ionization: ESI
Collision energy: 15.00
Column name: Acquity CSHC18
Retention time: NA
Base peak: 293.2111
Precursor m/z: 293.2111
Precursor type: [M+H]+
m/z	relative intensity
131.0845	16
133.0996	16
145.0997	17
147.1155	17
149.0987	17
151.1117	20
159.114	20
161.1045	21
163.1124	22
173.1295	22
175.1148	24
177.1275	25
183.1177	28
187.1173	30
191.1426	31
197.1324	31
201.128	38
207.1374	39
215.1745	41
219.1387	41
229.1939	44
231.175	48
233.1787	52
239.1788	53
247.205	53
257.1897	73
258.1926	77
275.2005	181
276.2041	187
293.2107	999
