Mass spectrum: C16-20:3 PC; ESI-TOF; MS2; CE: 0.6458333;  [M+H]+
Name: C16-20:3 PC
Class: NA
Formula: C44H84NO7P
Exact mass: 769.59854
SMILES: [H]C(=C([H])C([H])([H])C([H])=C([H])C([H])([H])C([H])([H])C([H])([H])C([H])([H])C([H])([H])C([H])([H])C(=O)OC([H])(C([H])([H])OC([H])([H])C([H])([H])C([H])([H])C([H])([H])C([H])([H])C([H])([H])C([H])([H])C([H])([H])C([H])([H])C([H])([H])C([H])([H])C([H])([H])C([H])([H])C([H])([H])C([H])([H])C([H])([H])[H])C([H])([H])OP(=O)([O-])OC([H])([H])C([H])([H])[N+](C([H])([H])[H])(C([H])([H])[H])C([H])([H])[H])C([H])([H])C([H])=C([H])C([H])([H])C([H])([H])C([H])([H])C([H])([H])C([H])([H])[H]
InChI: InChI=1S/C44H84NO7P/c1-6-8-10-12-14-16-18-20-22-23-24-25-27-29-31-33-35-37-44(46)52-43(42-51-53(47,48)50-40-38-45(3,4)5)41-49-39-36-34-32-30-28-26-21-19-17-15-13-11-9-7-2/h14,16,20,22,24-25,43H,6-13,15,17-19,21,23,26-42H2,1-5H3
Instrument: waters xevo g2 TOF
Instrument type: ESI-TOF
Ms type: MS2
Ion mode: POSITIVE
Ionization: ESI
Collision energy: 0.6458333
Column name: Acquity CSHC18
Retention time: 11.455 min
Base peak: 770.60654
Precursor m/z: 770.60654
Precursor type: [M+H]+
m/z	relative intensity
85.1026	6
86.0975	22
97.969	3
104.1077	31
162.9477	3
166.0631	3
184.0746	999
185.0775	62
186.0784	9
329.2313	3
345.2109	116
346.2142	25
347.2137	3
355.0701	4
361.1832	4
404.7812	7
405.2799	6
464.3507	111
465.3537	51
466.3586	4
528.2769	3
587.5403	23
588.5441	6
609.5213	5
615.1404	2
733.5139	39
734.5179	20
735.5216	3
770.6055	672
771.6095	341
