Mass spectrum: 8ß-angeloyloxy-14-oxo-4ß,9ß-dihydroxy-guaia-11(13)-en-6,12-olide; LC-ESI-ITFT; MS2; CE: 50eV;  [M+H]+
Name: 8ß-angeloyloxy-14-oxo-4ß,9ß-dihydroxy-guaia-11(13)-en-6,12-olide
Class: Sesquiterpenelactone; Guaianolide
Formula: C20H26O7
Exact mass: 378.1679
SMILES: C\C=C(\C)C(=O)O[C@@H]2[C@H](O)C(C=O)[C@@H]3CC[C@](C)(O)[C@@H]3[C@H]1OC(=O)C(=C)[C@@H]12
InChI: InChI=1S/C20H26O7/c1-5-9(2)18(23)27-17-13-10(3)19(24)26-16(13)14-11(6-7-20(14,4)25)12(8-21)15(17)22/h5,8,11-17,22,25H,3,6-7H2,1-2,4H3/b9-5-/t11-,12?,13-,14-,15+,16-,17-,20-/m0/s1
Instrument: Q Exactive Plus, ThermoFisher Scientific
Instrument type: LC-ESI-ITFT
Ms type: MS2
Ion mode: POSITIVE
Ionization: ESI
Collision energy: 50eV
Column name: Acquity CSHC18
Retention time: 6.212 min
Base peak: 379.1743
Precursor m/z: 379.1743
Precursor type: [M+H]+
Precursor intensity: 91802470
m/z	relative intensity
55.055	113
81.0706	19
83.0502	999
84.0534	5
97.4426	3
100.0766	1
133.0418	2
134.5966	1
169.101	14
175.0743	2
177.0909	3
187.1127	1
197.0962	10
199.1113	2
201.0925	8
205.1225	2
213.0905	2
215.1078	28
217.0869	40
225.0901	11
233.1162	2
243.1006	68
244.1033	7
261.1117	125
262.1157	8
271.1701	2
279.0944	2
279.1173	15
280.1276	1
289.1814	5
325.1573	2
343.1129	4
343.1551	11
361.1628	37
362.1659	1
379.0923	56
379.1974	28
