Mass spectrum: 5-Methoxyindoleacetate; LC-ESI-ITFT; MS2; CE: 30;  [M+H]+
Name: 5-Methoxyindoleacetate
Class: Organoheterocyclic compounds; Indoles and derivatives; Indolyl carboxylic acids and derivatives
Formula: C11H11NO3
Exact mass: 205.07389
SMILES: COC1=CC2=C(NC=C2CC(O)=O)C=C1
InChI: InChI=1S/C11H11NO3/c1-15-8-2-3-10-9(5-8)7(6-12-10)4-11(13)14/h2-3,5-6,12H,4H2,1H3,(H,13,14)
Instrument: Thermo Scientific Q-Exactive Focus
Instrument type: LC-ESI-ITFT
Ms type: MS2
Ion mode: POSITIVE
Ionization: ESI
Collision energy: 30
Column name: Acquity CSHC18
Retention time: 0.914 min
Base peak: 206.08118
Precursor m/z: 206.08118
Precursor type: [M+H]+
m/z	relative intensity
103.0545	86
117.0575	409
118.0415	21
130.0652	76
132.0445	25
132.0809	16
133.0649	320
145.0523	673
146.0602	16
160.0758	999
