Mass spectrum: Galangin; LC-ESI-QTOF; MS2; CE: 15;  [M-H]-
Name: Galangin
Class: NA
Formula: C15H10O5
Exact mass: 270.0528
SMILES: C1=CC=C(C=C1)C2=C(C(=O)C3=C(C=C(C=C3O2)O)O)O
InChI: InChI=1S/C15H10O5/c16-9-6-10(17)12-11(7-9)20-15(14(19)13(12)18)8-4-2-1-3-5-8/h1-7,16-17,19H
Instrument: Bruker MicrOTOF-Q
Instrument type: LC-ESI-QTOF
Ms type: MS2
Ion mode: NEGATIVE
Ionization: ESI
Collision energy: 15
Column name: Acquity CSHC18
Retention time: NA
Base peak: 269.0455
Precursor m/z: 269.0455
Precursor type: [M-H]-
m/z	relative intensity
49.0127	13
50.6756	7
64.9822	13
75.0606	10
82.9017	11
86.9238	11
94.5033	10
109.8189	8
121.0342	15
124.4674	8
137.829	11
141.2233	8
151.1411	10
153.0766	13
163.8888	10
180.0538	17
181.0639	8
195.0441	7
197.055	13
198.0203	37
201.0543	27
211.0265	16
212.0278	13
213.0588	67
218.26	10
223.0383	13
224.057	15
225.054	42
226.9574	13
227.0305	13
228.0419	11
233.0023	8
241.0529	16
245.7074	9
265.4534	9
268.7536	10
268.8795	15
269.0437	999
269.4511	9
270.0495	112
270.2839	11
271.0306	8
305.9332	8
313.2157	15
320.7322	9
325.8759	7
379.864	12
399.9804	9
410.4068	9
454.809	8
468.7103	10
547.6162	9
673.4265	7
810.039	7
881.487	9
905.6729	7
951.6885	13
957.9322	9
990.2661	8
