Mass spectrum: OMEGA-HYDROXYDODECANOATE; LC-ESI-QFT; MS2; CE: 30eV;  [M-H]-
Name: OMEGA-HYDROXYDODECANOATE
Class: NA
Formula: C12H24O3
Exact mass: 216.17254
SMILES: OCCCCCCCCCCCC(O)=O
InChI: InChI=1S/C12H24O3/c13-11-9-7-5-3-1-2-4-6-8-10-12(14)15/h13H,1-11H2,(H,14,15)
Instrument: Q-Exactive Orbitrap, Thermo Scientfic; Ultimate 3000 HPLC, Thermo Scientfic
Instrument type: LC-ESI-QFT
Ms type: MS2
Ion mode: NEGATIVE
Ionization: ESI
Collision energy: 30eV
Column name: Acquity CSHC18
Retention time: 9.603 min
Base peak: 215.1653
Precursor m/z: 215.1653
Precursor type: [M-H]-
Precursor intensity: 129
m/z	relative intensity
50.4053	3
52.8098	3
54.1505	2
71.9381	4
73.6729	4
74.5478	4
96.737	4
98.541	4
116.6542	4
125.8716	196
135.9005	4
143.8417	4
165.6606	4
169.1585	370
170.1623	30
170.8696	5
197.1538	199
198.157	17
205.7098	4
213.1486	78
216.1678	999
