Mass spectrum: 2-Aminobenzoic acid; ESI-TOF; MS2; CE: 6.0000000;  [M+H]+
Name: 2-Aminobenzoic acid
Class: NA
Formula: C7H7NO2
Exact mass: 137.04768
SMILES: C1=CC=C(C(=C1)C(=O)O)N
InChI: InChI=1S/C7H7NO2/c8-6-4-2-1-3-5(6)7(9)10/h1-4H,8H2,(H,9,10)
Instrument: waters xevo g2 TOF
Instrument type: ESI-TOF
Ms type: MS2
Ion mode: POSITIVE
Ionization: ESI
Collision energy: 6.0000000
Column name: Acquity CSHC18
Retention time: 2.127 min
Base peak: 138.05568
Precursor m/z: 138.05568
Precursor type: [M+H]+
m/z	relative intensity
92.0504	67
93.0435	5
115.0769	2
119.0371	3
120.2703	999
121.0483	601
122.0503	41
127.9974	15
128.9869	3
138.0558	67
139.0587	18
145.018	6
146.0604	1
151.0644	3
152.0714	444
153.0827	20
156.8352	1
160.0377	3
169.0009	1
170.0947	1
176.0023	1
180.1115	1
182.0508	3
183.1029	1
184.113	1
205.9909	1
209.0716	11
211.0878	2
220.1128	1
222.0084	2
223.116	26
227.0822	31
241.0949	32
244.57	1
253.0608	14
254.0682	1
255.0692	13
258.1048	5
260.0822	1
269.0561	2
270.0635	1
271.0498	27
272.0982	42
279.0936	1
284.0351	1
285.0822	6
293.0561	2
294.0592	1
299.062	1
313.0503	11
320.0436	4
321.0284	11
328.0151	11
329.018	3
335.0307	2
345.1504	1
348.051	71
350.0242	3
350.9985	1
366.0061	2
404.086	2
406.1044	7
415.2544	1
437.2367	4
444.2599	1
450.0994	1
459.2807	1
487.0421	1
488.0413	1
509.0745	1
510.0294	1
525.2888	3
535.1557	1
569.3148	2
