Mass spectrum: HOMOCYSTEINE; LC-ESI-QTOF; MS2; CE: 20;  [M-H]-
Name: HOMOCYSTEINE
Class: NA
Formula: C4H9NO2S
Exact mass: 135.03540
SMILES: C(CS)C(C(=O)O)N
InChI: InChI=1S/C4H9NO2S/c5-3(1-2-8)4(6)7/h3,8H,1-2,5H2,(H,6,7)
Instrument: Agilent 6530Â Q-TOF LC/MS
Instrument type: LC-ESI-QTOF
Ms type: MS2
Ion mode: NEGATIVE
Ionization: ESI
Collision energy: 20
Column name: NA
Retention time: 0.200 min
Base peak: 134.03041
Precursor m/z: 134.03041
Precursor type: [M-H]-
Precursor intensity: 102
m/z	relative intensity
45.9915	206
57.9852	246
80.974	280
95.9493	387
134.0162	999
