Mass spectrum: Lochnericine; ESI-QTOF; MS2; CE: 30 eV;  [M+H]+
Name: Lochnericine
Class: NA
Formula: C21H24N2O3
Exact mass: 352.1787
SMILES: CCC12CC(=C3C4(CCN(CC5(C1(O5)[H])[H])C24[H])C6=CC=CC=C6N3)C(=O)OC
InChI: InChI=1S/C21H24N2O3/c1-3-20-10-12(18(24)25-2)16-21(13-6-4-5-7-14(13)22-16)8-9-23(19(20)21)11-15-17(20)26-15/h4-7,15,17,19,22H,3,8-11H2,1-2H3
Instrument: Synapt (HDMS 1st gen)
Instrument type: ESI-QTOF
Ms type: MS2
Ion mode: POSITIVE
Ionization: ESI
Collision energy: 30 eV
Column name: Acquity CSHC18
Retention time: 13.174 min
Base peak: 353.1866
Precursor m/z: 353.1866
Precursor type: [M+H]+
Precursor intensity: 4172.2
m/z	relative intensity
167.073	40
168.0798	340
169.084	62
196.0757	182
228.1014	579
229.1069	114
293.1666	128
294.1714	33
321.1622	167
322.1652	38
353.1824	999
