Mass spectrum: cinchonine; LC-ESI-QFT; MS2; CE: 15,30,45 (NCE);  [M+H]+
Name: cinchonine
Class: NA
Formula: C19H22N2O
Exact mass: 294.1732
SMILES: OC(C1CC2CCN1CC2C=C)C1=CC=NC2=CC=CC=C12
InChI: InChI=1S/C19H22N2O/c1-2-13-12-21-10-8-14(13)11-18(21)19(22)16-7-9-20-17-6-4-3-5-15(16)17/h2-7,9,13-14,18-19,22H,1,8,10-12H2
Instrument: QE Focus, Thermo Scientfic; UPLC I-Class, Waters
Instrument type: LC-ESI-QFT
Ms type: MS2
Ion mode: POSITIVE
Ionization: ESI
Collision energy: 15,30,45 (NCE)
Column name: Acquity CSHC18
Retention time: 0.957 min
Base peak: 295.1805
Precursor m/z: 295.1805
Precursor type: [M+H]+
Precursor intensity: 1650254000
m/z	relative intensity
56.0603	2
57.2349	3
67.0552	5
71.5016	2
77.255	2
79.0547	21
81.0707	35
81.9619	3
82.0657	4
99.1233	3
108.0812	4
110.0972	12
130.0655	30
134.0965	13
136.1119	5
142.0648	6
144.0812	5
154.0651	8
156.0806	6
166.0647	4
166.1223	4
168.0806	22
172.0757	3
189.2295	3
223.1231	5
234.1279	14
235.1228	5
277.1701	98
295.1804	999
