Mass spectrum: 4-methylumbelliferone; LC-ESI-QTOF; MS2; CE: 15.00;  [M+H]+
Name: 4-methylumbelliferone
Class: NA
Formula: C10H8O3
Exact mass: 176.0473
SMILES: CC1=CC(=O)OC2=C1C=CC(=C2)O
InChI: InChI=1S/C10H8O3/c1-6-4-10(12)13-9-5-7(11)2-3-8(6)9/h2-5,11H,1H3
Instrument: Bruker MicrOTOF-Q
Instrument type: LC-ESI-QTOF
Ms type: MS2
Ion mode: POSITIVE
Ionization: ESI
Collision energy: 15.00
Column name: Acquity CSHC18
Retention time: NA
Base peak: 177.0546
Precursor m/z: 177.0546
Precursor type: [M+H]+
m/z	relative intensity
121.0639	19
133.0649	19
149.061	57
177.0561	106
178.0592	999
