Mass spectrum: 2-Hydroxyphenethylamine; ESI-TOF; MS2; CE: 6.0000000;  [M+H]+
Name: 2-Hydroxyphenethylamine
Class: NA
Formula: C8H11NO
Exact mass: 137.08406
SMILES: NCC(O)C1=CC=CC=C1
InChI: InChI=1S/C8H11NO/c9-6-8(10)7-4-2-1-3-5-7/h1-5,8,10H,6,9H2
Instrument: waters xevo g2 TOF
Instrument type: ESI-TOF
Ms type: MS2
Ion mode: POSITIVE
Ionization: ESI
Collision energy: 6.0000000
Column name: Acquity CSHC18
Retention time: 0.585 min
Base peak: 138.09206
Precursor m/z: 138.09206
Precursor type: [M+H]+
m/z	relative intensity
103.0549	8
120.0815	999
121.0846	102
122.0878	5
138.0918	4
