Mass spectrum: Nonadecanoic acid; LC-ESI-ITFT; MS2; CE: 40;  [M-H]-
Name: Nonadecanoic acid
Class: Lipids and lipid-like molecules; Fatty Acyls; Fatty acids and conjugates
Formula: C19H38O2
Exact mass: 298.28718
SMILES: CCCCCCCCCCCCCCCCCCC(O)=O
InChI: InChI=1S/C19H38O2/c1-2-3-4-5-6-7-8-9-10-11-12-13-14-15-16-17-18-19(20)21/h2-18H2,1H3,(H,20,21)
Instrument: Thermo Scientific Q-Exactive Focus
Instrument type: LC-ESI-ITFT
Ms type: MS2
Ion mode: NEGATIVE
Ionization: ESI
Collision energy: 40
Column name: Acquity CSHC18
Retention time: 1.474 min
Base peak: 297.27991
Precursor m/z: 297.27991
Precursor type: [M-H]-
m/z	relative intensity
79.9561	25
104.9851	36
119.0491	58
132.9801	22
149.0085	29
183.0113	999
184.0192	13
197.0271	47
216.0093	41
297.1529	17
