Mass spectrum: 3-Isobutyl-1-methylxanthine; ESI-TOF; MS2; CE: 0.6458333;  [M+H]+
Name: 3-Isobutyl-1-methylxanthine
Class: NA
Formula: C10H14N4O2
Exact mass: 222.11168
SMILES: CC(C)CN1C2=C(C(=O)N(C1=O)C)NC=N2
InChI: InChI=1S/C10H14N4O2/c1-6(2)4-14-8-7(11-5-12-8)9(15)13(3)10(14)16/h5-6H,4H2,1-3H3,(H,11,12)
Instrument: waters xevo g2 TOF
Instrument type: ESI-TOF
Ms type: MS2
Ion mode: POSITIVE
Ionization: ESI
Collision energy: 0.6458333
Column name: Acquity CSHC18
Retention time: 2.469 min
Base peak: 223.11968
Precursor m/z: 223.11968
Precursor type: [M+H]+
m/z	relative intensity
55.0299	1
82.0406	14
83.0246	4
110.0355	508
111.0377	29
112.0393	1
135.0311	3
136.0145	15
149.0467	7
167.0569	999
168.0594	90
169.0613	7
186.0297	9
186.5314	1
205.004	4
214.0619	3
223.1658	44
224.1222	21
225.1244	1
229.1291	1
242.0928	1
245.1016	36
246.1045	4
261.039	4
262.0685	1
277.0284	1
278.0457	9
279.0524	8
280.0504	1
307.0718	14
308.0659	2
309.0657	2
323.0438	3
371.0518	1
427.1139	2
442.079	4
443.087	2
445.0882	1
456.109	3
467.2094	1
483.1462	17
484.1808	8
485.1832	1
489.1963	1
498.1445	4
499.1496	9
500.1529	1
501.1514	8
502.1521	2
503.1482	3
530.1745	1
