Mass spectrum: Caffeoyl glucaric acid; LC-ESI-ITFT; MS2; CE: 35eV;  [M-H]-
Name: Caffeoyl glucaric acid
Class: Hydroxycinnamic ester
Formula: C15H16O11
Exact mass: 372.0693
SMILES: C1=CC(=C(C=C1C=CC(=O)OC(C(C(C(C(=O)O)O)O)O)C(=O)O)O)O
InChI: InChI=1S/C15H16O11/c16-7-3-1-6(5-8(7)17)2-4-9(18)26-13(15(24)25)11(20)10(19)12(21)14(22)23/h1-5,10-13,16-17,19-21H,(H,22,23)(H,24,25)
Instrument: LTQ Orbitrap XL, Thermo Scientfic; Dionex Ultimate 300
Instrument type: LC-ESI-ITFT
Ms type: MS2
Ion mode: NEGATIVE
Ionization: ESI
Collision energy: 35eV
Column name: Lichrospher C18 Column 250*4 5um, Interchim
Retention time: 15.448 min
Base peak: 371.0620
Precursor m/z: 371.0620
Precursor type: [M-H]-
m/z	relative intensity
191.2444	1
209.2605	3
371.1197	999
