Mass spectrum: N-Benzyloxycarbonyl-22,26-epimino-23beta-methoxy-16beta,23-epoxy-5alpha,22alphaH,25alphaH-cholestan-3-on; APCI-ITFT; MS2; CE: 35 CID;  [M+H]+
Name: N-Benzyloxycarbonyl-22,26-epimino-23beta-methoxy-16beta,23-epoxy-5alpha,22alphaH,25alphaH-cholestan-3-on
Class: NA
Formula: C36H51NO5
Exact mass: 577.37672
SMILES: O=C1CC[C@@]2(C)[C@](CC[C@]3([H])[C@@]([H])2CC[C@@]4(C)[C@]([H])3C[C@]([H])(O[C@](C[C@@H](C)CN6C(OCC7=CC=CC=C7)=O)(OC)[C@@]6([H])[C@H]5C)[C@]54[H])([H])C1
InChI: InChI=1S/C36H51NO5/c1-22-19-36(40-5)32(37(20-22)33(39)41-21-24-9-7-6-8-10-24)23(2)31-30(42-36)18-29-27-12-11-25-17-26(38)13-15-34(25,3)28(27)14-16-35(29,31)4/h6-10,22-23,25,27-32H,11-21H2,1-5H3/t22-,23+,25+,27-,28+,29+,30+,31+,32-,34+,35+,36+/m1/s1
Instrument: Orbitrap Elite
Instrument type: APCI-ITFT
Ms type: MS2
Ion mode: POSITIVE
Ionization: APCI
Collision energy: 35 CID
Column name: Acquity CSHC18
Retention time: 0.175 min
Base peak: 578.38480
Precursor m/z: 578.38480
Precursor type: [M+H]+
Precursor intensity: 17123770
m/z	relative intensity
174.1277	2
202.1225	31
212.1441	2
214.1598	4
232.1706	4
251.1808	1
253.1939	6
255.2126	1
258.1486	8
271.2045	28
274.1431	4
281.1916	1
281.2278	1
283.2068	3
285.2222	21
287.2363	1
297.2197	4
299.2369	5
300.16	2
303.2307	16
311.2364	4
313.2562	1
314.1735	2
315.2657	7
370.239	8
374.282	1
375.2688	1
377.279	1
392.2917	11
394.3132	5
395.2933	1
406.3079	5
409.3086	1
410.3014	12
412.3209	29
418.2728	3
420.2911	1
424.3212	24
426.3401	33
427.3205	95
436.2847	11
438.3023	5
442.3324	50
443.3453	1
450.3009	13
452.315	3
454.2889	2
456.3136	2
468.3063	58
470.3246	15
484.3541	25
486.3198	15
487.3307	54
498.3753	6
502.3659	74
510.3384	2
516.3865	36
517.3717	2
528.3441	66
534.3891	999
542.3596	23
546.3569	97
560.3737	141
