Mass spectrum: L-Aspartic acid; LC-ESI-ITFT; MS2; CE: 40;  [M-H]-
Name: L-Aspartic acid
Class: Organic acids and derivatives; Carboxylic acids and derivatives; Amino acids, peptides, and analogues
Formula: C4H7NO4
Exact mass: 133.03751
SMILES: N[C@@H](CC(O)=O)C(O)=O
InChI: InChI=1S/C4H7NO4/c5-2(4(8)9)1-3(6)7/h2H,1,5H2,(H,6,7)(H,8,9)/t2-/m0/s1
Instrument: Thermo Scientific Q-Exactive Focus
Instrument type: LC-ESI-ITFT
Ms type: MS2
Ion mode: NEGATIVE
Ionization: ESI
Collision energy: 40
Column name: Acquity CSHC18
Retention time: 1.475 min
Base peak: 132.03023
Precursor m/z: 132.03023
Precursor type: [M-H]-
m/z	relative intensity
58.5154	652
71.0126	678
88.1953	652
92.5153	999
95.4462	706
103.7353	690
127.1188	653
127.8	698
142.7534	681
153.315	731
