Mass spectrum: QUINATE; LC-ESI-QTOF; MS2; CE: 40;  [M-H]-
Name: QUINATE
Class: NA
Formula: C7H12O6
Exact mass: 192.06339
SMILES: O[C@@H]1C[C@@](O)(C[C@@H](O)[C@H]1O)C(O)=O
InChI: InChI=1S/C7H12O6/c8-3-1-7(13,6(11)12)2-4(9)5(3)10/h3-5,8-10,13H,1-2H2,(H,11,12)/t3-,4-,5-,7+/m1/s1
Instrument: Agilent 6530Â Q-TOF LC/MS
Instrument type: LC-ESI-QTOF
Ms type: MS2
Ion mode: NEGATIVE
Ionization: ESI
Collision energy: 40
Column name: NA
Retention time: 0.200 min
Base peak: 191.05156
Precursor m/z: 191.05156
Precursor type: [M-H]-
Precursor intensity: 200
m/z	relative intensity
41.0191	110
43.0374	157
45.0158	166
53.0452	171
55.0304	180
57.0408	189
59.031	218
65.0496	225
67.03	230
69.04	245
71.0217	296
81.0434	459
85.0457	577
87.0162	605
93.0518	644
108.0273	687
109.0338	999
