Mass spectrum: Quercetin; ESI-TOF; MS2; CE: 0.6458333;  [M+H]+
Name: Quercetin
Class: NA
Formula: C15H10O7
Exact mass: 302.04265
SMILES: OC1=CC(O)=C2C(=O)C(O)=C(OC2=C1)C1=CC(O)=C(O)C=C1
InChI: InChI=1S/C15H10O7/c16-7-4-10(19)12-11(5-7)22-15(14(21)13(12)20)6-1-2-8(17)9(18)3-6/h1-5,16-19,21H
Instrument: waters xevo g2 TOF
Instrument type: ESI-TOF
Ms type: MS2
Ion mode: POSITIVE
Ionization: ESI
Collision energy: 0.6458333
Column name: Acquity CSHC18
Retention time: 2.700 min
Base peak: 303.05065
Precursor m/z: 303.05065
Precursor type: [M+H]+
m/z	relative intensity
68.9979	24
75.045	11
107.0141	4
109.029	54
111.0086	5
112.0117	1
115.0549	2
119.0126	3
121.0087	49
123.0796	3
131.0498	10
133.0657	3
135.0088	28
137.0238	382
138.0273	28
143.0689	9
145.0651	3
147.0441	17
149.0236	34
150.0289	2
153.0186	222
154.0223	19
155.0781	3
156.0253	2
159.0451	12
161.0605	31
163.0578	20
165.019	201
169.0498	1
171.0443	40
172.0476	2
173.0702	15
175.0255	2
176.0446	5
177.0546	13
181.0133	26
183.0655	14
187.0396	23
189.0551	3
191.2257	6
193.0503	9
195.029	30
199.0395	31
201.0543	87
202.0592	10
203.0347	41
204.0058	2
215.034	6
216.038	4
217.049	71
218.0537	1
218.961	3
221.0424	1
223.0247	12
227.0444	144
228.0398	3
229.0496	19
230.053	2
231.0299	11
233.0792	1
239.0353	10
241.0502	2
243.0295	1
244.0361	4
245.0448	170
246.0481	31
247.0593	64
255.0743	63
256.0346	37
257.0448	210
258.0486	17
259.0577	6
271.024	6
273.0758	999
274.106	175
275.0518	69
283.0235	30
285.0394	94
286.0439	12
287.0549	10
293.0234	2
301.0344	116
302.0392	6
303.5294	420
305.056	68
306.0586	6
307.0216	3
323.0173	5
329.1012	2
331.0454	2
333.0612	13
336.0245	4
337.9849	5
338.5232	2
339.0267	8
339.974	5
347.0206	1
353.0283	2
355.0431	65
356.0038	4
357.9766	4
363.0716	6
371.1027	4
373.0536	14
385.0986	7
387.069	24
388.0309	2
397.9902	1
399.0318	13
400.0347	3
491.978	3
518.9853	1
571.0505	1
603.0771	10
627.997	4
629.0504	10
639.0092	17
641.0308	3
655.9976	12
658.0049	174
659.0092	44
660.0106	9
674.0003	2
687.0472	1
688.0159	14
689.0182	5
958.0347	3
974.0319	1
