Mass spectrum: (2-AMINOETHYL)PHOSPHONATE; LC-ESI-QTOF; MS2; CE: 20;  [M+H]+
Name: (2-AMINOETHYL)PHOSPHONATE
Class: NA
Formula: C2H8NO3P
Exact mass: 125.0242
SMILES: NCCP(O)(O)=O
InChI: InChI=1S/C2H8NO3P/c3-1-2-7(4,5)6/h1-3H2,(H2,4,5,6)
Instrument: Agilent 6530Â Q-TOF LC/MS
Instrument type: LC-ESI-QTOF
Ms type: MS2
Ion mode: POSITIVE
Ionization: ESI
Collision energy: 20
Column name: NA
Retention time: 0.200 min
Base peak: 126.03139
Precursor m/z: 126.03139
Precursor type: [M+H]+
Precursor intensity: 133.5
m/z	relative intensity
97.0373	999
