Mass spectrum: Brassinolide; LC-ESI-ITFT; MS2; CE: 45eV;  [M+H]+
Name: Brassinolide
Class: glucosinolate
Formula: C28H48O6
Exact mass: 480.3451
SMILES: CC(C)C(C)C(C(C(C)C1CCC2C1(CCC3C2COC(=O)C4C3(CC(C(C4)O)O)C)C)O)O
InChI: InChI=1S/C28H48O6/c1-14(2)15(3)24(31)25(32)16(4)18-7-8-19-17-13-34-26(33)21-11-22(29)23(30)12-28(21,6)20(17)9-10-27(18,19)5/h14-25,29-32H,7-13H2,1-6H3
Instrument: LTQ Orbitrap XL, Thermo Scientfic; Dionex Ultimate 300
Instrument type: LC-ESI-ITFT
Ms type: MS2
Ion mode: POSITIVE
Ionization: ESI
Collision energy: 45eV
Column name: Alltima C18
Retention time: 25.19 min
Base peak: 481.3495
Precursor m/z: 481.3495
Precursor type: [M+H]+
m/z	relative intensity
161.1704	16
166.7794	42
189.0376	25
205.2947	59
223.1549	33
235.1335	143
245.1057	33
249.3038	118
265.1042	110
267.2878	194
277.0935	143
281.1325	76
293.1304	245
303.2236	262
311.2952	203
315.2176	999
325.2729	245
331.205	550
339.2681	101
345.2487	169
359.3416	25
373.2635	67
375.3589	287
388.3416	8
389.2161	220
399.1839	76
405.2176	42
409.3557	778
421.2242	753
424.1822	42
440.6356	8
451.5111	50
