Mass spectrum: GULOSE; LC-ESI-QTOF; MS2; CE: 40;  [M-H]-
Name: GULOSE
Class: NA
Formula: C6H12O6
Exact mass: 180.06339
SMILES: OC[C@@H]1OC(O)[C@@H](O)[C@@H](O)[C@@H]1O
InChI: InChI=1S/C6H12O6/c7-1-2-3(8)4(9)5(10)6(11)12-2/h2-11H,1H2/t2-,3+,4-,5-,6?/m0/s1
Instrument: Agilent 6530Â Q-TOF LC/MS
Instrument type: LC-ESI-QTOF
Ms type: MS2
Ion mode: NEGATIVE
Ionization: ESI
Collision energy: 40
Column name: NA
Retention time: 0.200 min
Base peak: 179.05949
Precursor m/z: 179.05949
Precursor type: [M-H]-
Precursor intensity: 174
m/z	relative intensity
41.0084	95
43.0192	112
44.9993	139
55.0179	173
57.0006	182
59.0251	317
71.0145	999
