Mass spectrum: Stachydrine; LC-ESI-QTOF; MS2; CE: 30;  [M+H]+
Name: Stachydrine
Class: NA
Formula: C7H13NO2
Exact mass: 143.09463
SMILES: C[N+]1(CCCC1C(=O)[O-])C
InChI: InChI=1S/C7H13NO2/c1-8(2)5-3-4-6(8)7(9)10/h6H,3-5H2,1-2H3
Instrument: impact II
Instrument type: LC-ESI-QTOF
Ms type: MS2
Ion mode: POSITIVE
Ionization: ESI
Collision energy: 30
Column name: Acquity CSHC18
Retention time: 1.666 min
Base peak: 144.10180
Precursor m/z: 144.10180
Precursor type: [M+H]+
m/z	relative intensity
58.0661	914
84.0811	656
102.055	110
144.1018	999
145.1052	108
