Mass spectrum: Chlorogenic acid; LC-ESI-ITFT; MS2; CE: 20/50eV;  [M-H]-
Name: Chlorogenic acid
Class: phenolic compound
Formula: C16H18O9
Exact mass: 354.0951
SMILES: C1C(C(C(CC1(C(=O)O)O)OC(=O)C=CC2=CC(=C(C=C2)O)O)O)O
InChI: InChI=1S/C16H18O9/c17-9-3-1-8(5-10(9)18)2-4-13(20)25-12-7-16(24,15(22)23)6-11(19)14(12)21/h1-5,11-12,14,17-19,21,24H,6-7H2,(H,22,23)
Instrument: Bruker timsTOF
Instrument type: LC-ESI-ITFT
Ms type: MS2
Ion mode: NEGATIVE
Ionization: ESI
Collision energy: 20/50eV
Column name: Acquity CSHC18
Retention time: 3.665 min
Base peak: 353.0880
Precursor m/z: 353.0880
Precursor type: [M-H]-
Precursor intensity: 18252.19
m/z	relative intensity
85.0293	21
161.0239	23
191.056	999
192.0597	64
