Mass spectrum: Vitexin; LC-ESI-QTOF; MS2; CE: 50eV;  [M-H]-
Name: Vitexin
Class: Flavone
Formula: C21H20O10
Exact mass: 432.1056
SMILES: C1=CC(=CC=C1C2=CC(=O)C3=C(O2)C(=C(C=C3O)O)C4C(C(C(C(O4)CO)O)O)O)O
InChI: InChI=1S/C21H20O10/c22-7-14-17(27)18(28)19(29)21(31-14)16-11(25)5-10(24)15-12(26)6-13(30-20(15)16)8-1-3-9(23)4-2-8/h1-6,14,17-19,21-25,27-29H,7H2
Instrument: TIMS-TOF Pro, Bruker Daltonik; Elute UHPLC System, Bruker Daltonik
Instrument type: LC-ESI-QTOF
Ms type: MS2
Ion mode: NEGATIVE
Ionization: ESI
Collision energy: 50eV
Column name: Acquity CSHC18
Retention time: 5.085 min
Base peak: 431.0897
Precursor m/z: 431.0897
Precursor type: [M-H]-
Precursor intensity: 256342.6
m/z	relative intensity
39.501	1
43.0177	1
59.0127	3
61.7124	6
65.0029	5
74.1001	1
77.0387	29
78.0411	3
79.0178	17
88.2337	4
93.0337	31
94.0386	2
95.0105	2
103.4092	1
105.0333	19
107.0107	1
109.028	3
114.2741	3
117.0329	133
117.2803	1
118.0363	13
119.0508	7
120.0179	1
121.0271	23
123.0056	2
125.4183	2
127.8615	1
131.0115	3
133.026	6
135.0266	21
135.1934	1
136.0472	4
137.0218	7
146.0376	2
148.0144	2
149.0232	24
150.9019	2
155.6059	1
158.1416	5
159.0431	27
159.8833	1
160.7438	3
161.0218	48
161.6286	2
162.0237	8
162.5721	2
163.0187	19
164.0086	3
165.0158	4
166.3248	3
169.3541	2
171.0779	1
173.0199	5
175.0021	2
181.9637	9
184.2337	2
185.6103	5
187.9872	3
191.0118	3
192.3904	2
193.5315	4
195.0788	5
196.0645	2
197.0238	3
200.0787	2
202.5889	1
204.039	2
205.2796	1
208.4067	3
209.4574	2
211.0715	5
212.0462	4
215.0692	2
216.2293	3
217.7134	2
219.5668	3
221.0553	1
224.5242	2
227.038	1
227.994	1
234.4216	1
235.8553	2
239.0674	8
241.612	2
243.0626	2
245.4825	2
247.0215	3
249.1499	2
256.3338	1
260.1216	2
264.8166	3
267.9175	2
268.4985	2
272.0393	2
275.067	1
279.2301	1
282.0458	1
283.0555	26
283.7749	2
284.0618	4
284.5483	1
285.0619	5
286.2558	3
293.0367	6
295.395	2
307.428	3
310.0738	1
310.9435	2
311.0519	999
311.2132	2
311.3273	2
311.5499	4
311.6789	2
311.8951	2
312.0302	56
312.2878	2
312.4188	1
312.5777	1
313.0545	18
313.3308	2
314.0625	1
315.3575	1
323.0478	6
324.0518	1
325.0489	1
341.061	81
341.4717	1
342.0634	13
343.0615	1
352.5474	1
355.5825	1
366.9917	1
377.064	2
385.2429	1
396.587	3
406.5778	1
415.0851	2
430.0231	1
430.8082	1
430.9336	3
431.0733	773
431.2992	4
431.3876	5
431.4761	3
431.5416	5
