Mass spectrum: EICOSAPENTAENOATE; LC-ESI-QFT; MS2; CE: 30eV;  [M-H]-
Name: EICOSAPENTAENOATE
Class: NA
Formula: C20H30O2
Exact mass: 302.22458
SMILES: CC/C=C\C/C=C\C/C=C\C/C=C\C/C=C\CCCC(=O)O
InChI: InChI=1S/C20H30O2/c1-2-3-4-5-6-7-8-9-10-11-12-13-14-15-16-17-18-19-20(21)22/h3-4,6-7,9-10,12-13,15-16H,2,5,8,11,14,17-19H2,1H3,(H,21,22)/b4-3-,7-6-,10-9-,13-12-,16-15-
Instrument: Q-Exactive Orbitrap, Thermo Scientfic; Ultimate 3000 HPLC, Thermo Scientfic
Instrument type: LC-ESI-QFT
Ms type: MS2
Ion mode: NEGATIVE
Ionization: ESI
Collision energy: 30eV
Column name: Acquity CSHC18
Retention time: 12.939 min
Base peak: 301.2173
Precursor m/z: 301.2173
Precursor type: [M-H]-
Precursor intensity: 180
m/z	relative intensity
51.7921	112
52.8664	113
53.9151	116
54.5106	109
54.6762	106
59.0123	266
65.5222	109
68.2567	109
71.893	138
72.4736	140
81.1879	133
88.2965	128
92.3627	124
96.1031	128
120.2543	135
132.0157	131
162.0285	132
203.1802	196
226.7203	129
253.0659	172
257.2271	199
283.1365	125
301.2183	999
