Mass spectrum: Isoferulic acid; ESI-TOF; MS2; CE: 0.6458333;  [M+H]+
Name: Isoferulic acid
Class: NA
Formula: C10H10O4
Exact mass: 194.05791
SMILES: COC1=C(O)C=C(C=CC(O)=O)C=C1
InChI: InChI=1S/C10H10O4/c1-14-9-4-2-7(6-8(9)11)3-5-10(12)13/h2-6,11H,1H3,(H,12,13)
Instrument: waters xevo g2 TOF
Instrument type: ESI-TOF
Ms type: MS2
Ion mode: POSITIVE
Ionization: ESI
Collision energy: 0.6458333
Column name: Acquity CSHC18
Retention time: 2.282 min
Base peak: 195.06591
Precursor m/z: 195.06591
Precursor type: [M+H]+
m/z	relative intensity
63.0239	6
65.0396	3
79.0526	11
89.0394	999
90.0428	93
91.0549	108
92.0582	7
93.0706	7
103.0551	32
104.058	2
105.052	20
106.042	127
107.0475	17
108.0215	3
117.0343	969
118.0381	87
119.0484	19
120.0536	1
121.0657	45
122.0681	3
123.0453	5
125.0603	2
131.0498	7
133.0473	6
134.0373	410
135.0444	56
137.0603	3
145.0291	407
146.0327	42
147.0439	18
149.0602	490
150.0639	49
151.0395	3
157.0385	1
159.0444	4
160.0499	1
160.9868	2
162.0318	36
163.0395	50
164.0431	4
175.0401	8
177.2705	42
179.0606	7
188.993	2
192.0422	1
193.0502	5
194.0866	3
195.0656	11
201.0141	3
205.0294	2
207.0307	2
211.0283	2
215.0164	67
216.04	5
217.0478	12
221.0596	1
221.9984	1
230.9744	2
233.0129	9
234.016	16
235.0763	4
237.0491	2
239.0298	2
240.034	2
245.034	2
247.9998	3
249.0547	3
250.0627	2
251.0237	15
253.0008	1
257.0829	2
261.0461	2
262.0612	1
263.0706	8
264.0758	3
265.0616	3
266.0584	3
267.0656	8
268.0738	5
271.1048	1
276.043	2
277.0762	1
278.0561	1
280.0386	2
281.0794	6
282.0854	1
283.106	7
291.0326	3
292.0722	6
293.0799	8
294.0527	1
295.0586	2
297.0769	1
307.0548	1
308.0693	11
309.1056	4
310.0745	3
311.0788	2
312.0296	3
323.0923	23
324.0962	5
325.1063	8
327.0871	25
328.0898	4
331.0282	1
333.0572	2
337.0742	2
339.0898	1
341.1027	7
342.1074	2
351.086	10
363.0698	1
365.0567	7
367.0816	1
369.0116	2
375.0726	2
377.0109	3
380.0343	11
383.0955	10
385.0918	5
386.099	1
393.0771	2
395.0717	4
404.0188	4
406.0489	35
407.0401	11
408.0597	1
409.0476	22
410.0929	7
411.0564	5
412.0967	1
413.0861	6
422.0263	1
424.0246	43
425.0394	11
427.0392	2
428.0744	24
429.043	2
431.129	1
434.1238	2
438.0413	2
439.1004	1
440.0706	1
441.0761	1
442.0356	100
443.0417	30
444.0431	5
445.0627	5
447.0406	1
449.0802	6
450.116	2
453.5219	1
465.0548	3
466.0871	1
467.0855	1
525.2042	1
601.1309	4
602.1351	1
605.1474	1
607.1409	4
608.1409	1
616.0656	2
619.1076	2
621.1297	4
622.1317	1
632.0924	1
634.0859	4
636.0933	4
637.0967	1
674.0414	3
680.0523	1
689.0156	1
693.0318	1
811.154	1
868.099	2
882.0672	1
883.0635	1
884.067	2
885.0716	2
886.0738	5
888.0708	1
