Mass spectrum: HIPPURATE; LC-ESI-QTOF; MS2; CE: 20;  [M+H]+
Name: HIPPURATE
Class: NA
Formula: C9H9NO3
Exact mass: 179.05824
SMILES: OC(=O)CNC(=O)C1=CC=CC=C1
InChI: InChI=1S/C9H9NO3/c11-8(12)6-10-9(13)7-4-2-1-3-5-7/h1-5H,6H2,(H,10,13)(H,11,12)
Instrument: Agilent 6530Â Q-TOF LC/MS
Instrument type: LC-ESI-QTOF
Ms type: MS2
Ion mode: POSITIVE
Ionization: ESI
Collision energy: 20
Column name: NA
Retention time: 0.200 min
Base peak: 180.06491
Precursor m/z: 180.06491
Precursor type: [M+H]+
Precursor intensity: 118.5
m/z	relative intensity
51.0373	21
77.1086	22
77.383	22
77.5185	24
77.7382	24
78.0417	27
105.2681	116
105.6973	521
105.9006	999
