Mass spectrum: Retinol; LC-ESI-QTOF; MS2; CE: 60;  [M+H]+
Name: Retinol
Class: NA
Formula: C20H30O
Exact mass: 286.22967
SMILES: CC1=C(C(CCC1)(C)C)C=CC(=CC=CC(=CCO)C)C
InChI: InChI=1S/C20H30O/c1-16(8-6-9-17(2)13-15-21)11-12-19-18(3)10-7-14-20(19,4)5/h6,8-9,11-13,21H,7,10,14-15H2,1-5H3
Instrument: impact II
Instrument type: LC-ESI-QTOF
Ms type: MS2
Ion mode: POSITIVE
Ionization: ESI
Collision energy: 60
Column name: Acquity CSHC18
Retention time: 1.911 min
Base peak: 287.23770
Precursor m/z: 287.23770
Precursor type: [M+H]+
m/z	relative intensity
53.039	191
55.0546	932
67.0548	395
69.0702	435
77.0386	275
79.055	416
81.07	253
91.0543	999
93.0697	203
95.0854	110
103.0544	118
105.0451	121
105.0698	719
115.054	253
116.0622	115
117.0697	349
119.0855	485
128.0618	585
129.0695	612
130.0763	214
131.0855	330
133.1014	170
141.0697	456
142.0772	544
143.085	532
144.0921	189
145.1006	331
153.0697	116
154.0774	123
155.0854	408
156.0925	282
157.1007	280
158.1073	112
169.1008	290
170.1085	131
171.1163	163
