Mass spectrum: INDOLe-3-butyric acid; LC-ESI-QTOF; MS2; CE: -10, -35, -60V;  [M-H]-
Name: INDOLe-3-butyric acid
Class: NA
Formula: C12H13NO2
Exact mass: 203.0946
SMILES: C1=CC=C2C(=C1)C(=CN2)CCCC(=O)O
InChI: InChI=1S/C12H13NO2/c14-12(15)7-3-4-9-8-13-11-6-2-1-5-10(9)11/h1-2,5-6,8,13H,3-4,7H2,(H,14,15)
Instrument: TripleToF 5600; Sciex
Instrument type: LC-ESI-QTOF
Ms type: MS2
Ion mode: NEGATIVE
Ionization: ESI
Collision energy: -10, -35, -60V
Column name: Acquity CSHC18
Retention time: 14.465 min
Base peak: 202.0891
Precursor m/z: 202.0891
Precursor type: [M-H]-
Precursor intensity: 27775.69
m/z	relative intensity
158.0982	174
202.0907	999
