Mass spectrum: Adenosine 5'-monophosphate; LC-ESI-QTOF; MS2; CE: 18.61;  [M+H]+
Name: Adenosine 5'-monophosphate
Class: NA
Formula: C10H14N5O7P
Exact mass: 347.0631
SMILES: C1=NC(=C2C(=N1)N(C=N2)C3C(C(C(O3)COP(=O)(O)O)O)O)N
InChI: InChI=1S/C10H14N5O7P/c11-8-5-9(13-2-12-8)15(3-14-5)10-7(17)6(16)4(22-10)1-21-23(18,19)20/h2-4,6-7,10,16-17H,1H2,(H2,11,12,13)(H2,18,19,20)
Instrument: Bruker MicrOTOF-Q
Instrument type: LC-ESI-QTOF
Ms type: MS2
Ion mode: POSITIVE
Ionization: ESI
Collision energy: 18.61
Column name: Acquity CSHC18
Retention time: NA
Base peak: 348.0704
Precursor m/z: 348.0704
Precursor type: [M+H]+
m/z	relative intensity
97.02	13
109.05	1
119.03	8
135.39	1
135.49	1
135.54	1
135.6	1
135.96	2
136.06	999
136.17	2
136.21	2
136.27	2
136.36	2
136.42	1
136.48	1
136.52	1
136.58	1
136.68	1
136.73	1
136.79	1
136.87	1
136.99	1
137.06	62
137.21	1
137.26	1
137.42	1
137.76	1
138.06	2
178.07	3
187.06	1
208.08	1
214.07	2
232.08	3
250.09	12
251.1	1
268.11	1
330.07	1
348.07	12
349.07	2
