Mass spectrum: C12 Sphingosyl PE (d17:1/12:0); ESI-TOF; MS2; CE: 6.0000000;  [M+H]+
Name: C12 Sphingosyl PE (d17:1/12:0)
Class: NA
Formula: C31H63N2O6P
Exact mass: 590.44237
SMILES: [H]OC([H])(C([H])=C([H])C([H])([H])C([H])([H])C([H])([H])C([H])([H])C([H])([H])C([H])([H])C([H])([H])C([H])([H])C([H])([H])C([H])([H])C([H])([H])C([H])([H])[H])C([H])(N([H])C(=O)C([H])([H])C([H])([H])C([H])([H])C([H])([H])C([H])([H])C([H])([H])C([H])([H])C([H])([H])C([H])([H])C([H])([H])C([H])([H])[H])C([H])([H])OP(=O)([O-])OC([H])([H])C([H])([H])[N+]([H])([H])[H]
InChI: InChI=1S/C31H63N2O6P/c1-3-5-7-9-11-13-14-15-17-18-20-22-24-30(34)29(28-39-40(36,37)38-27-26-32)33-31(35)25-23-21-19-16-12-10-8-6-4-2/h22,24,29-30,34H,3-21,23,25-28,32H2,1-2H3,(H,33,35)(H,36,37)
Instrument: waters xevo g2 TOF
Instrument type: ESI-TOF
Ms type: MS2
Ion mode: POSITIVE
Ionization: ESI
Collision energy: 6.0000000
Column name: Acquity CSHC18
Retention time: 9.475 min
Base peak: 591.45037
Precursor m/z: 591.45037
Precursor type: [M+H]+
m/z	relative intensity
250.2543	3
314.1847	5
315.2026	62
315.7039	37
334.1773	8
334.6775	3
432.4205	6
450.4315	296
451.4343	96
452.438	15
530.3961	1
568.3439	8
569.3476	3
573.441	69
574.4428	23
575.4411	3
584.3147	2
586.356	212
587.3593	68
588.9026	10
589.3958	3
591.4507	999
592.4526	181
