Mass spectrum: N-FeruloylAgmatine; LC-ESI-ITFT; MS2; CE: 35eV;  [M+H]+
Name: N-FeruloylAgmatine
Class: Phenolamide
Formula: C15H22N4O3
Exact mass: 306.1692
SMILES: COC1=C(C=CC(=C1)C=CC(=O)NC(=NCCCCN)N)O
InChI: InChI=1S/C15H22N4O3/c1-22-13-10-11(4-6-12(13)20)5-7-14(21)19-15(17)18-9-3-2-8-16/h4-7,10,20H,2-3,8-9,16H2,1H3,(H3,17,18,19,21)
Instrument: LTQ Orbitrap XL, Thermo Scientfic; Dionex Ultimate 300
Instrument type: LC-ESI-ITFT
Ms type: MS2
Ion mode: POSITIVE
Ionization: ESI
Collision energy: 35eV
Column name: Kinetex XB C18 150*2,1 2,6 Âµm, Phenomenex
Retention time: 9.758 min
Base peak: 307.1720
Precursor m/z: 307.1720
Precursor type: [M+H]+
m/z	relative intensity
96.9987	4
97.9924	1
113.9424	154
114.9111	77
116.8658	1
130.992	9
144.943	12
151.0006	1
156.9456	22
176.9322	190
230.1201	5
236.0912	8
247.0837	172
248.0498	72
265.0556	50
273.1058	13
290.0775	999
291.1361	2
292.1745	1
