Mass spectrum: HOMOCYSTINE; LC-ESI-QFT; MS2; CE: 30eV;  [M-H]-
Name: HOMOCYSTINE
Class: NA
Formula: C8H16N2O4S2
Exact mass: 268.05515
SMILES: NC(CCSSCCC(N)C(O)=O)C(O)=O
InChI: InChI=1S/C8H16N2O4S2/c9-5(7(11)12)1-3-15-16-4-2-6(10)8(13)14/h5-6H,1-4,9-10H2,(H,11,12)(H,13,14)
Instrument: Q-Exactive Orbitrap, Thermo Scientfic; Ultimate 3000 HPLC, Thermo Scientfic
Instrument type: LC-ESI-QFT
Ms type: MS2
Ion mode: NEGATIVE
Ionization: ESI
Collision energy: 30eV
Column name: Acquity CSHC18
Retention time: 0.578 min
Base peak: 267.0479
Precursor m/z: 267.0479
Precursor type: [M-H]-
Precursor intensity: 167
m/z	relative intensity
52.2377	11
53.8839	11
60.2436	14
70.9943	111
72.0073	999
73.0106	13
73.8687	13
88.0208	325
114.9841	746
124.5487	15
130.1859	14
132.0108	838
133.5398	14
134.0265	516
134.8926	18
170.3661	14
177.9562	31
208.2353	15
216.9465	28
218.962	60
219.9271	99
220.9777	274
221.8416	80
221.9431	57
238.9881	60
267.5821	14
275.2422	13
288.5113	15
