Mass spectrum: Butanetriol; ESI-TOF; MS2; CE: 0.6458333;  [M+H]+
Name: Butanetriol
Class: NA
Formula: C4H10O3
Exact mass: 106.06299
SMILES: CCCC(O)(O)O
InChI: InChI=1S/C4H10O3/c1-2-3-4(5,6)7/h5-7H,2-3H2,1H3
Instrument: waters xevo g2 TOF
Instrument type: ESI-TOF
Ms type: MS2
Ion mode: POSITIVE
Ionization: ESI
Collision energy: 0.6458333
Column name: Acquity CSHC18
Retention time: 0.585 min
Base peak: 107.07099
Precursor m/z: 107.07099
Precursor type: [M+H]+
m/z	relative intensity
71.0504	80
89.9409	16
91.0022	16
95.9708	63
96.962	69
97.9696	263
98.9629	70
100.9653	16
101.9415	13
112.0208	23
113.0242	31
113.9772	999
114.9895	30
115.9613	130
117.0389	11
123.9823	5
124.9699	11
126.0108	43
128.0271	1
129.0111	8
129.9698	17
131.0294	51
132.9588	27
133.9987	5
139.9643	8
140.9923	1
142.986	26
143.9601	143
144.9935	40
145.9615	46
149.0401	25
160.9901	217
161.9841	94
165.0062	8
172.9512	17
192.0087	78
205.0022	17
213.9025	6
230.9608	2
235.028	32
236.0349	105
246.8634	3
272.9472	2
273.9817	8
