Mass spectrum: Fructose-6-phosphate; LC-ESI-QTOF; MS2; CE: 15.38;  [M+2Na-H]+
Name: Fructose-6-phosphate
Class: NA
Formula: C6H13O9P
Exact mass: 260.0297
SMILES: C(C(C(C(C(=O)CO)O)O)O)OP(=O)(O)O
InChI: InChI=1S/C6H13O9P/c7-1-3(8)5(10)6(11)4(9)2-15-16(12,13)14/h4-7,9-11H,1-2H2,(H2,12,13,14)
Instrument: Bruker MicrOTOF-Q
Instrument type: LC-ESI-QTOF
Ms type: MS2
Ion mode: POSITIVE
Ionization: ESI
Collision energy: 15.38
Column name: Acquity CSHC18
Retention time: NA
Base peak: 305.0009
Precursor m/z: 305.0009
Precursor type: [M+2Na-H]+
m/z	relative intensity
124.9359	42
142.9465	47
184.9582	62
196.9591	78
214.9698	87
226.973	373
268.9797	478
286.9913	659
287.9938	782
305.0019	856
306.0064	999
