Mass spectrum: Quercetin.Glc.Rha; LC-ESI-ITFT; MS2; CE: 30;  [M+H]+
Name: Quercetin.Glc.Rha
Class: NA
Formula: C27H30O16
Exact mass: 610.1534
SMILES: c1(cc(c2c(c1)oc(c(c2=O)O[C@H]1[C@@H]([C@H]([C@@H]([C@H](O1)CO)O)O)O)c1ccc(c(c1)O)O)O)O[C@H]1[C@@H]([C@H]([C@H]([C@@H](O1)C)O)O)O
InChI: InChI=1S/C27H30O16/c1-8-17(32)20(35)22(37)26(39-8)40-10-5-13(31)16-14(6-10)41-24(9-2-3-11(29)12(30)4-9)25(19(16)34)43-27-23(38)21(36)18(33)15(7-28)42-27/h2-6,8,15,17-18,20-23,26-33,35-38H,7H2,1H3/t8-,15+,17-,18+,20-,21-,22+,23+,26-,27-/m0/s1
Instrument: q exactive focus thermo
Instrument type: LC-ESI-ITFT
Ms type: MS2
Ion mode: POSITIVE
Ionization: ESI
Collision energy: 30
Column name: Acquity CSHC18
Retention time: 6.193 min
Base peak: 611.1595
Precursor m/z: 611.1595
Precursor type: [M+H]+
Precursor intensity: 12644900
m/z	relative intensity
102.9597	3
105.951	4
108.0245	4
110.0371	4
112.9613	4
115.0467	4
117.9474	4
118.0635	4
120.0688	5
121.0948	6
125.031	6
125.9737	7
129.0194	7
131.0589	7
140.9761	8
143.0791	9
149.9503	10
162.0522	14
166.0684	16
213.9056	17
224.8885	19
239.0846	19
265.0694	92
303.04	999
