Mass spectrum: Abietic_acid; APCI-ITFT; MS2; CE: CID 45;  [M-H]-
Name: Abietic_acid
Class: NA
Formula: C20H30O2
Exact mass: 302.22458
SMILES: CC(C)C1=CC2=CCC3C(C2CC1)(CCCC3(C)C(=O)O)C
InChI: InChI=1S/C20H30O2/c1-13(2)14-6-8-16-15(12-14)7-9-17-19(16,3)10-5-11-20(17,4)18(21)22/h7,12-13,16-17H,5-6,8-11H2,1-4H3,(H,21,22)
Instrument: Orbitrap Elite
Instrument type: APCI-ITFT
Ms type: MS2
Ion mode: NEGATIVE
Ionization: APCI
Collision energy: CID 45
Column name: Acquity CSHC18
Retention time: 0.227 min
Base peak: 301.21820
Precursor m/z: 301.21820
Precursor type: [M-H]-
Precursor intensity: 66986010
m/z	relative intensity
83.8772	72
89.7828	77
110.0145	72
115.1585	79
123.8462	76
196.5324	83
205.1925	86
207.9791	84
223.7975	88
226.0513	81
255.2117	547
257.1548	999
257.1917	210
283.1676	164
284.3699	103
285.989	80
286.1919	106
296.8872	118
299.8367	85
