Mass spectrum: GLUCURONATE; LC-ESI-QTOF; MS2; CE: 20;  [M-H]-
Name: GLUCURONATE
Class: NA
Formula: C6H10O7
Exact mass: 194.04265
SMILES: O[C@H]1O[C@@H]([C@@H](O)[C@H](O)[C@H]1O)C(O)=O
InChI: InChI=1S/C6H10O7/c7-1-2(8)4(5(10)11)13-6(12)3(1)9/h1-4,6-9,12H,(H,10,11)/t1-,2-,3+,4-,6-/m0/s1
Instrument: Agilent 6530Â Q-TOF LC/MS
Instrument type: LC-ESI-QTOF
Ms type: MS2
Ion mode: NEGATIVE
Ionization: ESI
Collision energy: 20
Column name: NA
Retention time: 0.200 min
Base peak: 193.03666
Precursor m/z: 193.03666
Precursor type: [M-H]-
Precursor intensity: 160
m/z	relative intensity
41.0114	125
43.0259	190
45.0041	216
55.0245	258
57.0419	267
59.0294	317
71.0279	323
73.0183	443
85.0428	529
95.0148	534
113.0317	999
