Mass spectrum: Ala-Ala; ESI-TOF; MS2; CE: 0.6458333;  [M+H]+
Name: Ala-Ala
Class: NA
Formula: C6H12N2O3
Exact mass: 160.08479
SMILES: CC(N)C(=O)NC(C)C(O)=O
InChI: InChI=1S/C6H12N2O3/c1-3(7)5(9)8-4(2)6(10)11/h3-4H,7H2,1-2H3,(H,8,9)(H,10,11)
Instrument: waters xevo g2 TOF
Instrument type: ESI-TOF
Ms type: MS2
Ion mode: POSITIVE
Ionization: ESI
Collision energy: 0.6458333
Column name: Acquity CSHC18
Retention time: 0.494 min
Base peak: 161.09279
Precursor m/z: 161.09279
Precursor type: [M+H]+
m/z	relative intensity
90.0555	14
113.9639	14
115.0862	14
133.0978	14
141.9591	14
143.0827	14
161.0926	14
162.0949	14
183.0746	999
184.0759	14
199.041	405
205.0554	310
343.1607	14
359.1228	233
374.0901	14
375.0965	14
419.057	483
534.1746	14
556.1553	14
578.1378	433
