Mass spectrum: Homaloside D; LC-ESI-ITFT; MS2; CE: 20/50eV;  [M-H]-
Name: Homaloside D
Class: Salicinoid
Formula: C27H28O12
Exact mass: 544.1581
SMILES: C1CC(=O)C(C=C1)(C(=O)OCC2=C(C=CC(=C2)O)OC3C(C(C(C(O3)COC(=O)C4=CC=CC=C4)O)O)O)O
InChI: InChI=1S/C27H28O12/c28-17-9-10-18(16(12-17)13-37-26(34)27(35)11-5-4-8-20(27)29)38-25-23(32)22(31)21(30)19(39-25)14-36-24(33)15-6-2-1-3-7-15/h1-3,5-7,9-12,19,21-23,25,28,30-32,35H,4,8,13-14H2
Instrument: Bruker timsTOF
Instrument type: LC-ESI-ITFT
Ms type: MS2
Ion mode: NEGATIVE
Ionization: ESI
Collision energy: 20/50eV
Column name: Acquity CSHC18
Retention time: 7.007 min
Base peak: 543.1509
Precursor m/z: 543.1509
Precursor type: [M-H]-
Precursor intensity: 34983.75
m/z	relative intensity
137.025	632
139.0391	765
155.0355	534
543.1476	999
