Mass spectrum: GMP; LC-ESI-QTOF; MS2; CE: 60;  [M+H]+
Name: GMP
Class: Purine ribonucleoside monophosphates
Formula: C10H14N5O8P
Exact mass: 363.05800
SMILES: NC1=NC2=C(N=CN2[C@@H]2O[C@H](COP(O)(O)=O)[C@@H](O)[C@H]2O)C(=O)N1
InChI: InChI=1S/C10H14N5O8P/c11-10-13-7-4(8(18)14-10)12-2-15(7)9-6(17)5(16)3(23-9)1-22-24(19,20)21/h2-3,5-6,9,16-17H,1H2,(H2,19,20,21)(H3,11,13,14,18)/t3-,5-,6-,9-/m1/s1
Instrument: impact II
Instrument type: LC-ESI-QTOF
Ms type: MS2
Ion mode: POSITIVE
Ionization: ESI
Collision energy: 60
Column name: Acquity CSHC18
Retention time: 1.672 min
Base peak: 364.06550
Precursor m/z: 364.06550
Precursor type: [M+H]+
m/z	relative intensity
110.0347	345
135.0299	999
152.0563	791
153.0407	302
