Mass spectrum: L-Glutamic acid; LC-ESI-ITFT; MS2; CE: 20;  [M+H]+
Name: L-Glutamic acid
Class: Organic acids and derivatives; Carboxylic acids and derivatives; Amino acids, peptides, and analogues
Formula: C5H9NO4
Exact mass: 147.05316
SMILES: N[C@@H](CCC(O)=O)C(O)=O
InChI: InChI=1S/C5H9NO4/c6-3(5(9)10)1-2-4(7)8/h3H,1-2,6H2,(H,7,8)(H,9,10)/t3-/m0/s1
Instrument: Thermo Scientific Q-Exactive Focus
Instrument type: LC-ESI-ITFT
Ms type: MS2
Ion mode: POSITIVE
Ionization: ESI
Collision energy: 20
Column name: Acquity CSHC18
Retention time: 0.630 min
Base peak: 148.06042
Precursor m/z: 148.06042
Precursor type: [M+H]+
m/z	relative intensity
56.0501	125
61.8284	1
84.0449	999
85.0289	23
96.1616	1
96.194	1
102.0553	51
121.577	1
130.05	6
137.7166	1
