Mass spectrum: Deoxyinosine; LC-ESI-ITFT; MS2; CE: 40;  [M-H]-
Name: Deoxyinosine
Class: Nucleosides, nucleotides, and analogues; Purine nucleosides; Purine 2'-deoxyribonucleosides
Formula: C10H12N4O4
Exact mass: 252.08585
SMILES: OC[C@H]1O[C@H](C[C@@H]1O)N1C=NC2=C1N=CNC2=O
InChI: InChI=1S/C10H12N4O4/c15-2-6-5(16)1-7(18-6)14-4-13-8-9(14)11-3-12-10(8)17/h3-7,15-16H,1-2H2,(H,11,12,17)/t5-,6+,7+/m0/s1
Instrument: Thermo Scientific Q-Exactive Focus
Instrument type: LC-ESI-ITFT
Ms type: MS2
Ion mode: NEGATIVE
Ionization: ESI
Collision energy: 40
Column name: Acquity CSHC18
Retention time: 1.481 min
Base peak: 251.07858
Precursor m/z: 251.07858
Precursor type: [M-H]-
m/z	relative intensity
65.0133	26
65.9973	23
91.0289	29
92.0242	335
108.0191	266
118.0398	81
126.0297	188
134.0222	23
135.03	999
161.0458	54
