Mass spectrum: Fructose; LC-ESI-QTOF; MS2; CE: 16.88;  [2M-2H2O+H]+
Name: Fructose
Class: NA
Formula: C6H12O6
Exact mass: 180.0634
SMILES: C(C(C(C(C(=O)CO)O)O)O)O
InChI: InChI=1S/C6H12O6/c7-1-3(9)5(11)6(12)4(10)2-8/h3,5-9,11-12H,1-2H2
Instrument: Bruker MicrOTOF-Q
Instrument type: LC-ESI-QTOF
Ms type: MS2
Ion mode: POSITIVE
Ionization: ESI
Collision energy: 16.88
Column name: Acquity CSHC18
Retention time: NA
Base peak: 325.1129
Precursor m/z: 325.1129
Precursor type: [2M-2H2O+H]+
m/z	relative intensity
127.0368	27
128.0422	33
139.0406	36
145.0478	44
146.0516	46
151.0396	47
163.0579	50
165.0562	52
169.0499	52
177.0546	53
181.0479	66
193.0501	72
199.064	84
205.0491	90
211.0598	90
223.058	91
224.0605	91
229.0694	100
235.0633	101
241.0683	158
247.0849	211
253.0677	251
271.0808	710
289.086	999
