Mass spectrum: N-Alpha-acetyllysine; LC-ESI-ITFT; MS2; CE: 40;  [M+H]+
Name: N-Alpha-acetyllysine
Class: Organic acids and derivatives; Carboxylic acids and derivatives; Amino acids, peptides, and analogues
Formula: C8H16N2O3
Exact mass: 188.11609
SMILES: CC(=O)NC(CCCCN)C(O)=O
InChI: InChI=1S/C8H16N2O3/c1-6(11)10-7(8(12)13)4-2-3-5-9/h7H,2-5,9H2,1H3,(H,10,11)(H,12,13)
Instrument: Thermo Scientific Q-Exactive Focus
Instrument type: LC-ESI-ITFT
Ms type: MS2
Ion mode: POSITIVE
Ionization: ESI
Collision energy: 40
Column name: Acquity CSHC18
Retention time: 1.463 min
Base peak: 189.12337
Precursor m/z: 189.12337
Precursor type: [M+H]+
m/z	relative intensity
55.0549	25
56.0501	261
57.0705	5
65.0391	5
67.0548	102
69.0578	16
74.0242	4
84.0812	999
85.0653	3
157.444	3
