Mass spectrum: Brompheniramine; ESI-TOF; MS2; CE: 6.0000000;  [M+H]+
Name: Brompheniramine
Class: NA
Formula: C16H19BrN2
Exact mass: 318.07316
SMILES: CN(C)CCC(C1=CC=C(Br)C=C1)C1=CC=CC=N1
InChI: InChI=1S/C16H19BrN2/c1-19(2)12-10-15(16-5-3-4-11-18-16)13-6-8-14(17)9-7-13/h3-9,11,15H,10,12H2,1-2H3
Instrument: waters xevo g2 TOF
Instrument type: ESI-TOF
Ms type: MS2
Ion mode: POSITIVE
Ionization: ESI
Collision energy: 6.0000000
Column name: Acquity CSHC18
Retention time: 2.203 min
Base peak: 319.08116
Precursor m/z: 319.08116
Precursor type: [M+H]+
m/z	relative intensity
97.9692	2
101.0602	2
106.066	2
112.0482	2
118.0661	8
119.0728	10
120.0795	18
120.5844	1
121.0084	1
135.0454	1
138.0294	15
139.0694	1
155.9581	8
157.0778	1
157.9556	5
160.045	184
160.5466	36
161.0439	8
161.5456	35
162.0475	2
167.0737	10
168.0794	20
169.0247	3
175.0876	3
194.0969	1
202.0426	1
203.0427	14
204.0466	1
205.0459	5
214.0683	1
230.0738	364
231.0771	62
232.0712	127
233.0738	20
234.0796	1
242.0544	8
244.0521	8
245.9915	17
246.9995	167
247.9983	4
248.9959	360
250.0007	24
251.0048	2
258.1026	1
259.1516	1
259.9962	1
267.0502	8
269.0476	8
274.6009	727
276.6571	999
278.0882	63
278.94	1
289.0684	1
299.0196	3
300.0412	1
303.0521	1
312.0601	14
313.0786	1
314.0584	13
315.0603	1
319.6718	725
