Mass spectrum: (20S)-20-(5-methyl-pyridyl-2)-5alpha-pregnan-3beta, 16alpha-diol; APCI-ITFT; MS2; CE: CID 35;  [M-H]-
Name: (20S)-20-(5-methyl-pyridyl-2)-5alpha-pregnan-3beta, 16alpha-diol
Class: NA
Formula: C27H41NO2
Exact mass: 411.31373
SMILES: C[C@@]12[C@](CC[C@]3([H])[C@@]([H])2CC[C@@]4(C)[C@@]3([H])C[C@@H](O)[C@]4([H])[C@H](C)C5=NC=C(C)C=C5)([H])C[C@@H](O)CC1
InChI: InChI=1S/C27H41NO2/c1-16-5-8-23(28-15-16)17(2)25-24(30)14-22-20-7-6-18-13-19(29)9-11-26(18,3)21(20)10-12-27(22,25)4/h5,8,15,17-22,24-25,29-30H,6-7,9-14H2,1-4H3/t17-,18+,19+,20-,21+,22+,24-,25+,26+,27+/m1/s1
Instrument: Orbitrap Elite
Instrument type: APCI-ITFT
Ms type: MS2
Ion mode: NEGATIVE
Ionization: APCI
Collision energy: CID 35
Column name: Acquity CSHC18
Retention time: 1.174 min
Base peak: 410.30610
Precursor m/z: 410.30610
Precursor type: [M-H]-
Precursor intensity: 166902.6
m/z	relative intensity
136.0775	7
137.0803	2
258.1938	2
271.171	4
272.1746	2
273.1878	4
287.2018	4
289.2173	68
301.2167	6
313.2196	10
315.2304	44
316.2345	5
317.2461	34
325.187	2
349.3518	3
365.3073	5
366.247	2
378.2824	5
380.2983	3
381.2964	3
382.2792	4
383.2722	2
389.2731	4
390.2804	12
391.2842	20
392.2537	27
393.2614	20
394.2415	4
406.2742	6
407.2776	6
409.2956	999
409.3979	51
410.2982	228
410.4069	16
