Mass spectrum: 24:0 SM; ESI-TOF; MS2; CE: 0.6458333;  [M+H]+
Name: 24:0 SM
Class: NA
Formula: C47H95N2O6P
Exact mass: 814.69278
SMILES: [H]OC([H])(C([H])=C([H])C([H])([H])C([H])([H])C([H])([H])C([H])([H])C([H])([H])C([H])([H])C([H])([H])C([H])([H])C([H])([H])C([H])([H])C([H])([H])C([H])([H])C([H])([H])[H])C([H])(N([H])C(=O)C([H])([H])C([H])([H])C([H])([H])C([H])([H])C([H])([H])C([H])([H])C([H])([H])C([H])([H])C([H])([H])C([H])([H])C([H])([H])C([H])([H])C([H])([H])C([H])([H])C([H])([H])C([H])([H])C([H])([H])C([H])([H])C([H])([H])C([H])([H])C([H])([H])C([H])([H])C([H])([H])[H])C([H])([H])OP(=O)([O-])OC([H])([H])C([H])([H])[N+](C([H])([H])[H])(C([H])([H])[H])C([H])([H])[H]
InChI: InChI=1S/C47H95N2O6P/c1-6-8-10-12-14-16-18-20-21-22-23-24-25-26-27-29-31-33-35-37-39-41-47(51)48-45(44-55-56(52,53)54-43-42-49(3,4)5)46(50)40-38-36-34-32-30-28-19-17-15-13-11-9-7-2/h38,40,45-46,50H,6-37,39,41-44H2,1-5H3,(H-,48,51,52,53)
Instrument: waters xevo g2 TOF
Instrument type: ESI-TOF
Ms type: MS2
Ion mode: POSITIVE
Ionization: ESI
Collision energy: 0.6458333
Column name: Acquity CSHC18
Retention time: 12.381 min
Base peak: 815.70078
Precursor m/z: 815.70078
Precursor type: [M+H]+
m/z	relative intensity
86.0976	6
97.9697	5
104.1076	128
162.9472	37
184.0741	999
185.0772	52
222.0208	17
243.6367	6
264.2699	27
295.1984	7
427.328	90
428.3316	7
462.8449	4
463.3509	1
469.3031	7
477.7884	2
632.6328	9
633.6362	5
647.4576	18
648.46	7
778.6072	27
779.6098	10
805.1394	10
805.6456	4
815.6971	396
816.7034	88
