Mass spectrum: myo-inositol; LC-ESI-QTOF; MS2; CE: -10, -35, -60V;  [M-H]-
Name: myo-inositol
Class: NA
Formula: C6H12O6
Exact mass: 180.0634
SMILES: C1(C(C(C(C(C1O)O)O)O)O)O
InChI: InChI=1S/C6H12O6/c7-1-2(8)4(10)6(12)5(11)3(1)9/h1-12H
Instrument: TripleToF 5600; Sciex
Instrument type: LC-ESI-QTOF
Ms type: MS2
Ion mode: NEGATIVE
Ionization: ESI
Collision energy: -10, -35, -60V
Column name: Acquity CSHC18
Retention time: 0.635 min
Base peak: 179.0571
Precursor m/z: 179.0571
Precursor type: [M-H]-
Precursor intensity: 46341.5
m/z	relative intensity
88.0413	81
161.0419	163
170.0331	42
179.0587	999
