Mass spectrum: METHYGLUTARATE; LC-ESI-QFT; MS2; CE: 30eV;  [M+H]+
Name: METHYGLUTARATE
Class: NA
Formula: C6H10O4
Exact mass: 146.05791
SMILES: CC(CC(O)=O)CC(O)=O
InChI: InChI=1S/C6H10O4/c1-4(2-5(7)8)3-6(9)10/h4H,2-3H2,1H3,(H,7,8)(H,9,10)
Instrument: Q-Exactive Orbitrap, Thermo Scientfic; Ultimate 3000 HPLC, Thermo Scientfic
Instrument type: LC-ESI-QFT
Ms type: MS2
Ion mode: POSITIVE
Ionization: ESI
Collision energy: 30eV
Column name: Acquity CSHC18
Retention time: 2.774 min
Base peak: 147.0652
Precursor m/z: 147.0652
Precursor type: [M+H]+
Precursor intensity: 182
m/z	relative intensity
51.1777	11
55.055	155
59.0499	137
60.0429	12
69.0342	19
83.0497	89
91.0547	19
97.0083	18
101.0602	999
102.0636	21
115.0773	12
123.9648	97
125.9616	12
128.1072	24
129.0549	380
130.0291	32
142.7494	13
146.0811	98
146.1815	22
146.9813	20
147.0652	21
147.0847	14
148.0394	53
148.0971	127
165.034	14
