Mass spectrum: GLUCURONATE; LC-ESI-QTOF; MS2; CE: 40;  [M-H]-
Name: GLUCURONATE
Class: NA
Formula: C6H10O7
Exact mass: 194.04265
SMILES: O[C@H]1O[C@@H]([C@@H](O)[C@H](O)[C@H]1O)C(O)=O
InChI: InChI=1S/C6H10O7/c7-1-2(8)4(5(10)11)13-6(12)3(1)9/h1-4,6-9,12H,(H,10,11)/t1-,2-,3+,4-,6-/m0/s1
Instrument: Agilent 6530Â Q-TOF LC/MS
Instrument type: LC-ESI-QTOF
Ms type: MS2
Ion mode: NEGATIVE
Ionization: ESI
Collision energy: 40
Column name: NA
Retention time: 0.200 min
Base peak: 193.03573
Precursor m/z: 193.03573
Precursor type: [M-H]-
Precursor intensity: 162
m/z	relative intensity
41.0185	112
43.035	143
45.0095	156
49.011	163
53.0137	227
55.0325	246
57.0253	403
59.031	437
69.0023	479
71.027	693
73.0075	732
75.0153	999
