Mass spectrum: Formononetin; LC-ESI-ITFT; MS2; CE: 40;  [M-H]-
Name: Formononetin
Class: Phenylpropanoids and polyketides; Isoflavonoids; O-methylated isoflavonoids
Formula: C16H12O4
Exact mass: 268.07356
SMILES: COC1=CC=C(C=C1)C1=COC2=C(C=CC(O)=C2)C1=O
InChI: InChI=1S/C16H12O4/c1-19-12-5-2-10(3-6-12)14-9-20-15-8-11(17)4-7-13(15)16(14)18/h2-9,17H,1H3
Instrument: Thermo Scientific Q-Exactive Focus
Instrument type: LC-ESI-ITFT
Ms type: MS2
Ion mode: NEGATIVE
Ionization: ESI
Collision energy: 40
Column name: Acquity CSHC18
Retention time: 1.445 min
Base peak: 267.06628
Precursor m/z: 267.06628
Precursor type: [M-H]-
m/z	relative intensity
91.0177	307
132.0206	460
135.0077	248
167.0493	75
195.0444	759
208.0524	79
223.0396	999
224.0474	94
251.0348	460
252.0426	157
