Mass spectrum: Myricetin; LC-ESI-QTOF; MS2; CE: 35.00;  [M+H]+
Name: Myricetin
Class: NA
Formula: C15H10O8
Exact mass: 318.0376
SMILES: C1=C(C=C(C(=C1O)O)O)C2=C(C(=O)C3=C(C=C(C=C3O2)O)O)O
InChI: InChI=1S/C15H10O8/c16-6-3-7(17)11-10(4-6)23-15(14(22)13(11)21)5-1-8(18)12(20)9(19)2-5/h1-4,16-20,22H
Instrument: Bruker MicrOTOF-Q
Instrument type: LC-ESI-QTOF
Ms type: MS2
Ion mode: POSITIVE
Ionization: ESI
Collision energy: 35.00
Column name: Acquity CSHC18
Retention time: NA
Base peak: 319.0440
Precursor m/z: 319.0440
Precursor type: [M+H]+
m/z	relative intensity
115.0515	32
133.059	32
137.0225	35
147.0442	35
153.0183	37
154.0221	38
161.0584	38
163.0383	39
165.0193	40
166.0262	40
171.0444	42
175.0393	44
177.0543	45
179.0345	46
180.0377	46
187.0413	47
189.0551	47
190.0564	52
191.0364	52
193.0421	53
195.0289	53
199.0387	53
200.046	55
203.0344	55
204.0395	56
205.0441	56
207.0359	58
208.0367	63
209.0445	67
216.0429	81
217.0501	83
218.0535	84
219.0306	87
220.0342	90
221.0404	95
227.0342	99
229.0501	112
231.0289	112
232.0364	114
233.0444	127
235.0581	132
244.0368	166
245.0452	180
246.0484	202
255.031	242
261.0384	280
273.0404	288
274.0436	679
290.0441	953
301.0379	999
