Mass spectrum: 17-phenyl trinor Prostaglandin E2 serinol amide; ESI-TOF; MS2; CE: 0.6458333;  [M+H]+
Name: 17-phenyl trinor Prostaglandin E2 serinol amide
Class: NA
Formula: C26H37NO6
Exact mass: 459.26209
SMILES: OCC(CO)NC(CCC\C=C/C[C@@H]1C(/C=C/[C@@H](O)CCC2=CC=CC=C2)[C@H](O)CC1=O)=O
InChI: InChI=1S/C26H37NO6/c28-17-20(18-29)27-26(33)11-7-2-1-6-10-22-23(25(32)16-24(22)31)15-14-21(30)13-12-19-8-4-3-5-9-19/h1,3-6,8-9,14-15,20-23,25,28-30,32H,2,7,10-13,16-18H2,(H,27,33)/b6-1-,15-14+/t21-,22+,23?,25+/m0/s1
Instrument: waters xevo g2 TOF
Instrument type: ESI-TOF
Ms type: MS2
Ion mode: POSITIVE
Ionization: ESI
Collision energy: 0.6458333
Column name: Acquity CSHC18
Retention time: 2.908 min
Base peak: 460.27009
Precursor m/z: 460.27009
Precursor type: [M+H]+
m/z	relative intensity
74.0606	264
91.0554	145
92.0715	578
93.0702	14
102.0561	7
105.071	38
117.0708	126
128.072	161
129.0711	26
131.0869	163
132.0904	18
133.1032	9
141.0707	18
143.0885	63
145.0646	13
155.0874	22
157.1018	21
167.0849	34
169.0998	12
182.1183	20
183.1185	16
187.113	10
193.1024	12
195.1172	21
197.1342	24
203.1083	9
207.1146	15
221.1338	8
223.1108	9
249.1271	40
261.1636	21
263.169	12
273.1646	12
289.1592	9
296.0506	21
315.1785	27
324.1248	14
333.1864	68
352.2248	39
353.2257	8
354.2399	44
356.0902	17
372.2539	13
380.2221	106
381.2289	22
386.1026	10
388.2281	7
396.2538	83
405.1174	16
406.2383	714
407.2422	188
408.2432	13
414.1749	27
424.2498	999
425.2521	191
426.2549	38
442.2604	194
443.2623	55
444.2674	8
462.1959	18
