Mass spectrum: Luteolin-7-O-glucoside; LC-ESI-QTOF; MS2; CE: 26.03 / 26.11;  [M-H]-
Name: Luteolin-7-O-glucoside
Class: NA
Formula: C21H20O11
Exact mass: 448.1006
SMILES: C1=CC(=C(C=C1C2=CC(=O)C3=C(C=C(C=C3O2)OC4C(C(C(C(O4)CO)O)O)O)O)O)O
InChI: InChI=1S/C21H20O11/c22-7-16-18(27)19(28)20(29)21(32-16)30-9-4-12(25)17-13(26)6-14(31-15(17)5-9)8-1-2-10(23)11(24)3-8/h1-6,16,18-25,27-29H,7H2
Instrument: Bruker MicrOTOF-Q
Instrument type: LC-ESI-QTOF
Ms type: MS2
Ion mode: NEGATIVE
Ionization: ESI
Collision energy: 26.03 / 26.11
Column name: Acquity CSHC18
Retention time: NA
Base peak: 447.0933
Precursor m/z: 447.0933
Precursor type: [M-H]-
m/z	relative intensity
199.04	5
201.0176	4
241.0446	6
243.03	6
255.0298	16
256.0385	16
269.045	11
283.0228	8
284.0317	999
284.448	4
285.2678	632
286.0429	284
287.0452	42
297.0367	6
299.053	8
327.0486	20
447.0926	32
448.0985	6
