Mass spectrum: 1,5-Anhydrosorbitol; ESI-TOF; MS2; CE: 6.0000000;  [M+H]+
Name: 1,5-Anhydrosorbitol
Class: NA
Formula: C6H12O5
Exact mass: 164.06847
SMILES: OCC1OCC(O)C(O)C1O
InChI: InChI=1S/C6H12O5/c7-1-4-6(10)5(9)3(8)2-11-4/h3-10H,1-2H2
Instrument: waters xevo g2 TOF
Instrument type: ESI-TOF
Ms type: MS2
Ion mode: POSITIVE
Ionization: ESI
Collision energy: 6.0000000
Column name: Acquity CSHC18
Retention time: 0.574 min
Base peak: 165.07647
Precursor m/z: 165.07647
Precursor type: [M+H]+
m/z	relative intensity
97.9691	3
98.9633	3
98.9756	3
113.9642	3
129.0531	61
135.9925	60
137.9879	999
143.9597	34
154.9671	137
155.9752	54
169.966	3
170.983	72
171.0849	50
172.9768	726
172.9773	597
173.9714	3
184.0501	59
187.0574	886
188.0603	36
199.9779	70
203.023	3
218.9945	3
235.0391	50
249.0291	38
263.9935	427
264.9992	96
265.0006	218
266.0851	30
278.0081	24
279.0137	3
351.1266	138
353.105	90
380.0586	37
382.0561	667
383.0602	200
