Mass spectrum: N-Acetylserotonin; LC-ESI-ITFT; MS2; CE: 10;  [M-H]-
Name: N-Acetylserotonin
Class: Organoheterocyclic compounds; Indoles and derivatives; Hydroxyindoles
Formula: C12H14N2O2
Exact mass: 218.10553
SMILES: CC(=O)NCCC1=CNC2=C1C=C(O)C=C2
InChI: InChI=1S/C12H14N2O2/c1-8(15)13-5-4-9-7-14-12-3-2-10(16)6-11(9)12/h2-3,6-7,14,16H,4-5H2,1H3,(H,13,15)
Instrument: Thermo Scientific Q-Exactive Focus
Instrument type: LC-ESI-ITFT
Ms type: MS2
Ion mode: NEGATIVE
Ionization: ESI
Collision energy: 10
Column name: Acquity CSHC18
Retention time: 0.359 min
Base peak: 217.09825
Precursor m/z: 217.09825
Precursor type: [M-H]-
m/z	relative intensity
58.0286	65
120.9536	7
131.0365	10
148.9486	35
152.967	7
158.0601	203
170.9776	31
175.0867	7
217.0137	31
217.0977	999
