Mass spectrum: Pinocembrin; LC-ESI-QTOF; MS2; CE: 50eV;  [M+H]+
Name: Pinocembrin
Class: Flavanone
Formula: C15H12O4
Exact mass: 256.0736
SMILES: C1C(OC2=CC(=CC(=C2C1=O)O)O)C3=CC=CC=C3
InChI: InChI=1S/C15H12O4/c16-10-6-11(17)15-12(18)8-13(19-14(15)7-10)9-4-2-1-3-5-9/h1-7,13,16-17H,8H2
Instrument: TIMS-TOF Pro, Bruker Daltonik; Elute UHPLC System, Bruker Daltonik
Instrument type: LC-ESI-QTOF
Ms type: MS2
Ion mode: POSITIVE
Ionization: ESI
Collision energy: 50eV
Column name: Acquity CSHC18
Retention time: 8.990 min
Base peak: 257.0784
Precursor m/z: 257.0784
Precursor type: [M+H]+
Precursor intensity: 134977.2
m/z	relative intensity
43.0142	11
64.7362	6
66.9998	6
68.9976	19
77.0397	32
79.0553	13
83.0126	6
97.054	8
103.0539	180
129.0655	13
131.0486	402
132.0531	27
144.0862	8
151.0396	28
153.0174	999
154.0219	30
158.033	8
173.0539	6
179.0344	11
187.0753	5
215.0685	30
257.0784	749
