Mass spectrum: Reticuline; ESI-QTOF; MS2; CE: 1, 35, 60;  [M+H]+
Name: Reticuline
Class: Benzylisoquinoline alkaloid
Formula: C19H23NO4
Exact mass: 329.1627
SMILES: CN1CCC2=CC(=C(C=C2C1CC3=CC(=C(C=C3)OC)O)O)OC
InChI: InChI=1S/C19H23NO4/c1-20-7-6-13-10-19(24-3)17(22)11-14(13)15(20)8-12-4-5-18(23-2)16(21)9-12/h4-5,9-11,15,21-22H,6-8H2,1-3H3
Instrument: AB Sciex TripleToF 5500
Instrument type: ESI-QTOF
Ms type: MS2
Ion mode: POSITIVE
Ionization: ESI
Collision energy: 1, 35, 60
Column name: Acquity CSHC18
Retention time: 4.506 min
Base peak: 330.1686
Precursor m/z: 330.1686
Precursor type: [M+H]+
Precursor intensity: 1888241
m/z	relative intensity
77.0355	27
115.0496	33
131.0619	39
138.0606	45
149.0696	51
151.0636	54
161.0648	62
163.0642	75
166.0687	79
168.0714	81
181.0758	95
189.0609	125
190.0668	135
192.0788	152
193.0789	290
194.0905	325
209.0635	404
269.0946	999
