Mass spectrum: benzyl (2aS,4S,6aS,6bS,8aS,8bR,9S,9aR,12R,13aS,14aR,15aS,15bR)-4-acetoxy-13a-hydroxy-6a,8a,9,12-tetramethyldocosahydronaphtho[2'',1'':4',5']indeno[1',2':5,6]pyrano[3,2-b]pyridine-10(1H)-carboxylate; APCI-ITFT; MS2; CE: 35 CID;  [M+H]+
Name: benzyl (2aS,4S,6aS,6bS,8aS,8bR,9S,9aR,12R,13aS,14aR,15aS,15bR)-4-acetoxy-13a-hydroxy-6a,8a,9,12-tetramethyldocosahydronaphtho[2'',1'':4',5']indeno[1',2':5,6]pyrano[3,2-b]pyridine-10(1H)-carboxylate
Class: NA
Formula: C37H53NO6
Exact mass: 607.38729
SMILES: C[C@@]12[C@](CC[C@]3([H])[C@@]([H])2CC[C@@]4(C)[C@]([H])3C[C@@]([H])(O[C@](C[C@@H](C)CN6C(OCC7=CC=CC=C7)=O)(O)[C@@]6([H])[C@H]5C)[C@]54[H])([H])C[C@@H](OC(C)=O)CC1
InChI: InChI=1S/C37H53NO6/c1-22-19-37(41)33(38(20-22)34(40)42-21-25-9-7-6-8-10-25)23(2)32-31(44-37)18-30-28-12-11-26-17-27(43-24(3)39)13-15-35(26,4)29(28)14-16-36(30,32)5/h6-10,22-23,26-33,41H,11-21H2,1-5H3/t22-,23+,26+,27+,28-,29+,30+,31-,32+,33-,35+,36+,37+/m1/s1
Instrument: Orbitrap Elite
Instrument type: APCI-ITFT
Ms type: MS2
Ion mode: POSITIVE
Ionization: APCI
Collision energy: 35 CID
Column name: Acquity CSHC18
Retention time: 0.261 min
Base peak: 608.39280
Precursor m/z: 608.39280
Precursor type: [M+H]+
Precursor intensity: 119965800
m/z	relative intensity
202.1241	28
214.1592	5
232.1712	2
255.2101	4
258.1476	14
274.1454	7
315.2321	30
341.2467	1
343.2614	2
378.3125	4
396.3222	13
414.335	4
420.2911	1
422.3023	10
436.3235	2
438.3418	3
440.311	4
454.3319	4
456.3185	10
456.3436	117
464.3101	1
468.3672	2
472.3451	8
480.3112	7
482.327	14
484.345	2
486.3739	3
498.3233	4
499.3362	2
500.3373	7
512.355	8
528.384	14
530.363	4
546.3909	46
547.4078	2
564.4015	236
572.3751	246
590.3827	999
