Mass spectrum: L-4-Hydroxy-proline; LC-ESI-QTOF; MS2; CE: 15.00;  [M+H]+
Name: L-4-Hydroxy-proline
Class: NA
Formula: C5H9NO3
Exact mass: 131.0582
SMILES: C1C(CNC1C(=O)O)O
InChI: InChI=1S/C5H9NO3/c7-3-1-4(5(8)9)6-2-3/h3-4,6-7H,1-2H2,(H,8,9)
Instrument: Bruker MicrOTOF-Q
Instrument type: LC-ESI-QTOF
Ms type: MS2
Ion mode: POSITIVE
Ionization: ESI
Collision energy: 15.00
Column name: Acquity CSHC18
Retention time: NA
Base peak: 132.0655
Precursor m/z: 132.0655
Precursor type: [M+H]+
m/z	relative intensity
86.06	210
87.06	12
94.5	8
114.05	83
132.06	999
132.21	9
132.34	9
132.39	10
132.52	8
133.07	70
135.64	7
135.69	8
135.92	7
