Mass spectrum: Triethanolamine; LC-ESI-ITFT; MS2; CE: 40;  [M+H]+
Name: Triethanolamine
Class: Organonitrogen compounds; Amines; Alkanolamines
Formula: C6H15NO3
Exact mass: 149.10519
SMILES: OCCN(CCO)CCO
InChI: InChI=1S/C6H15NO3/c8-4-1-7(2-5-9)3-6-10/h8-10H,1-6H2
Instrument: Thermo Scientific Q-Exactive Focus
Instrument type: LC-ESI-ITFT
Ms type: MS2
Ion mode: POSITIVE
Ionization: ESI
Collision energy: 40
Column name: Acquity CSHC18
Retention time: 1.463 min
Base peak: 150.11247
Precursor m/z: 150.11247
Precursor type: [M+H]+
m/z	relative intensity
55.0423	122
56.0501	172
68.05	163
70.0656	999
97.8673	55
100.967	65
120.6139	52
140.8721	54
143.3059	54
152.9256	52
