Mass spectrum: dehydroepiandrosterone sulfate (sodium salt); ESI-TOF; MS2; CE: 6.0000000;  [M+H]+
Name: dehydroepiandrosterone sulfate (sodium salt)
Class: NA
Formula: C19H27NaO5S
Exact mass: 390.14769
SMILES: [H]C2=C1C([H])([H])C([H])(OS(=O)(=O)[O-])C([H])([H])C([H])([H])C1(C([H])([H])[H])C3([H])(C([H])([H])C([H])([H])C4(C(=O)C([H])([H])C([H])([H])C4([H])(C3([H])(C2([H])([H]))))(C([H])([H])[H])).[Na+]
InChI: InChI=1S/C19H28O5S.Na/c1-18-9-7-13(24-25(21,22)23)11-12(18)3-4-14-15-5-6-17(20)19(15,2)10-8-16(14)18;/h3,13-16H,4-11H2,1-2H3,(H,21,22,23);/q;+1/p-1
Instrument: waters xevo g2 TOF
Instrument type: ESI-TOF
Ms type: MS2
Ion mode: POSITIVE
Ionization: ESI
Collision energy: 6.0000000
Column name: Acquity CSHC18
Retention time: 5.442 min
Base peak: 391.15569
Precursor m/z: 391.15569
Precursor type: [M+H]+
m/z	relative intensity
197.1336	21
213.1643	29
253.1958	512
254.1991	37
270.1982	48
270.1983	17
271.2062	118
271.2064	999
272.2107	200
288.2334	18
293.189	30
351.1634	121
407.1189	22
407.1225	15
408.1234	15
439.1472	40
448.1477	194
448.1478	34
449.1516	16
454.1114	32
466.1208	33
466.1232	26
480.1702	18
489.1735	45
527.0697	3
677.32	16
