Mass spectrum: rosmarinic acid; LC-ESI-ITFT; MS2; CE: 0.3;  [M-H]-
Name: rosmarinic acid
Class: phenylpropanoids
Formula: C18H16O8
Exact mass: 360.0845
SMILES: C1=CC(=C(C=C1CC(C(=O)O)OC(=O)C=CC2=CC(=C(C=C2)O)O)O)O
InChI: InChI=1S/C18H16O8/c19-12-4-1-10(7-14(12)21)3-6-17(23)26-16(18(24)25)9-11-2-5-13(20)15(22)8-11/h1-8,16,19-22H,9H2,(H,24,25)
Instrument: LTQ-Orbitrap XL hybrid mass spectrometer (Thermo Scientific)
Instrument type: LC-ESI-ITFT
Ms type: MS2
Ion mode: NEGATIVE
Ionization: ESI
Collision energy: 0.3
Column name: Acquity CSHC18
Retention time: 6.189 min
Base peak: 359.0767
Precursor m/z: 359.0767
Precursor type: [M-H]-
Precursor intensity: 5793541
m/z	relative intensity
86.8447	5
95.6758	5
96.2757	7
102.423	7
103.5668	6
107.7242	5
107.7277	6
109.3906	6
109.9884	6
110.0777	6
125.9534	7
126.7515	5
127.7474	7
133.0299	35
135.0453	19
137.4975	7
138.9767	6
144.7257	7
161.0246	999
161.6187	7
161.9183	16
162.7665	6
163.1271	7
179.0349	280
197.0456	286
205.0155	10
223.0247	116
249.0393	9
264.6456	6
275.2033	7
315.0838	13
341.0678	7
