Mass spectrum: 6-HYDROXYNICOTINATE; LC-ESI-QTOF; MS2; CE: 40;  [M-H]-
Name: 6-HYDROXYNICOTINATE
Class: NA
Formula: C6H5NO3
Exact mass: 139.02694
SMILES: OC(=O)C1=CN=C(O)C=C1
InChI: InChI=1S/C6H5NO3/c8-5-2-1-4(3-7-5)6(9)10/h1-3H,(H,7,8)(H,9,10)
Instrument: Agilent 6530Â Q-TOF LC/MS
Instrument type: LC-ESI-QTOF
Ms type: MS2
Ion mode: NEGATIVE
Ionization: ESI
Collision energy: 40
Column name: NA
Retention time: 0.200 min
Base peak: 138.02210
Precursor m/z: 138.02210
Precursor type: [M-H]-
Precursor intensity: 112
m/z	relative intensity
41.0039	139
42.0106	999
