Mass spectrum: flavin mononucleotide; LC-ESI-QTOF; MS2; CE: -10, -35, -60V;  [M-H]-
Name: flavin mononucleotide
Class: NA
Formula: C17H21N4O9P
Exact mass: 456.1046
SMILES: CC1=CC2=C(C=C1C)N(C3=NC(=O)NC(=O)C3=N2)CC(C(C(COP(=O)(O)O)O)O)O
InChI: InChI=1S/C17H21N4O9P/c1-7-3-9-10(4-8(7)2)21(15-13(18-9)16(25)20-17(26)19-15)5-11(22)14(24)12(23)6-30-31(27,28)29/h3-4,11-12,14,22-24H,5-6H2,1-2H3,(H,20,25,26)(H2,27,28,29)
Instrument: TripleToF 5600; Sciex
Instrument type: LC-ESI-QTOF
Ms type: MS2
Ion mode: NEGATIVE
Ionization: ESI
Collision energy: -10, -35, -60V
Column name: Acquity CSHC18
Retention time: 12.518 min
Base peak: 455.1002
Precursor m/z: 455.1002
Precursor type: [M-H]-
Precursor intensity: 250427.3
m/z	relative intensity
138.9838	4
184.0914	2
199.0039	6
213.0214	87
228.1595	3
255.0941	73
256.0984	2
284.2184	4
453.0886	44
454.1049	4
455.1012	999
