Mass spectrum: loganin; LC-ESI-ITFT; MS2; CE: 0.3;  [M+HCOOH-H]-
Name: loganin
Class: iridoid glycosides
Formula: C17H26O10
Exact mass: 390.1526
SMILES: CC1C(CC2C1C(OC=C2C(=O)OC)OC3C(C(C(C(O3)CO)O)O)O)O
InChI: InChI=1S/C17H26O10/c1-6-9(19)3-7-8(15(23)24-2)5-25-16(11(6)7)27-17-14(22)13(21)12(20)10(4-18)26-17/h5-7,9-14,16-22H,3-4H2,1-2H3
Instrument: LTQ-Orbitrap XL hybrid mass spectrometer (Thermo Scientific)
Instrument type: LC-ESI-ITFT
Ms type: MS2
Ion mode: NEGATIVE
Ionization: ESI
Collision energy: 0.3
Column name: Acquity CSHC18
Retention time: 6.240 min
Base peak: 435.1504
Precursor m/z: 435.1504
Precursor type: [M+HCOOH-H]-
Precursor intensity: 43448340
m/z	relative intensity
110.2948	3
123.9076	3
127.0405	4
132.237	3
147.4809	2
151.2556	2
167.7637	4
168.552	3
176.5483	3
194.491	3
194.5019	4
194.5057	4
194.5169	3
194.5233	2
196.1594	12
225.1194	3
225.6108	4
227.0839	7
227.0923	999
227.1013	7
227.1039	6
227.8889	4
228.088	6
228.0955	100
228.5884	9
234.443	2
287.2417	13
287.2525	16
335.8185	3
351.5511	5
389.1444	118
390.1477	18
