Mass spectrum: 3-Glc-Medicagenic acid; ESI-QTOF; MS2; CE: 30 eV;  [M-H]-
Name: 3-Glc-Medicagenic acid
Class: Saponin
Formula: C36H56O11
Exact mass: 664.3823
SMILES: CC1(C)CCC2(CCC3(C)C(=CCC4(C5(C)CC(C(C(C)(C5(CCC43C)[H])C(=O)O)(OC6(C(C(C(C(CO)(O6)[H])(O)[H])(O)[H])(O)[H])[H])[H])(O)[H])[H])C2(C1)[H])C(=O)O
InChI: InChI=1S/C36H56O11/c1-31(2)11-13-36(30(44)45)14-12-33(4)18(19(36)15-31)7-8-22-32(3)16-20(38)27(35(6,29(42)43)23(32)9-10-34(22,33)5)47-28-26(41)25(40)24(39)21(17-37)46-28/h7,19-28,37-41H,8-17H2,1-6H3,(H,42,43)(H,44,45)
Instrument: Synapt (HDMS 1st gen)
Instrument type: ESI-QTOF
Ms type: MS2
Ion mode: NEGATIVE
Ionization: ESI
Collision energy: 30 eV
Column name: Acquity CSHC18
Retention time: 25.285 min
Base peak: 663.3730
Precursor m/z: 663.3730
Precursor type: [M-H]-
Precursor intensity: 1310.43
m/z	relative intensity
439.319	186
440.3256	557
663.3721	999
