Mass spectrum: 2-Hydroxybutyric acid; LC-ESI-ITFT; MS2; CE: 20;  [M-H]-
Name: 2-Hydroxybutyric acid
Class: Organic acids and derivatives; Hydroxy acids and derivatives; Alpha hydroxy acids and derivatives
Formula: C4H8O3
Exact mass: 104.04734
SMILES: CCC(O)C(O)=O
InChI: InChI=1S/C4H8O3/c1-2-3(5)4(6)7/h3,5H,2H2,1H3,(H,6,7)
Instrument: Thermo Scientific Q-Exactive Focus
Instrument type: LC-ESI-ITFT
Ms type: MS2
Ion mode: NEGATIVE
Ionization: ESI
Collision energy: 20
Column name: Acquity CSHC18
Retention time: 0.649 min
Base peak: 103.04007
Precursor m/z: 103.04007
Precursor type: [M-H]-
m/z	relative intensity
57.0334	999
63.585	11
67.0698	10
90.1794	10
93.148	10
93.3789	10
103.0388	52
107.4815	11
117.3377	10
124.8341	10
