Mass spectrum: C16-20:5 PC; ESI-TOF; MS2; CE: 6.0000000;  [M+H]+
Name: C16-20:5 PC
Class: NA
Formula: C44H80NO7P
Exact mass: 765.56724
SMILES: [H]C(=C([H])C([H])([H])C([H])=C([H])C([H])([H])C([H])=C([H])C([H])([H])C([H])([H])C([H])([H])C(=O)OC([H])(C([H])([H])OC([H])([H])C([H])([H])C([H])([H])C([H])([H])C([H])([H])C([H])([H])C([H])([H])C([H])([H])C([H])([H])C([H])([H])C([H])([H])C([H])([H])C([H])([H])C([H])([H])C([H])([H])C([H])([H])[H])C([H])([H])OP(=O)([O-])OC([H])([H])C([H])([H])[N+](C([H])([H])[H])(C([H])([H])[H])C([H])([H])[H])C([H])([H])C([H])=C([H])C([H])([H])C([H])=C([H])C([H])([H])C([H])([H])[H]
InChI: InChI=1S/C44H80NO7P/c1-6-8-10-12-14-16-18-20-22-23-24-25-27-29-31-33-35-37-44(46)52-43(42-51-53(47,48)50-40-38-45(3,4)5)41-49-39-36-34-32-30-28-26-21-19-17-15-13-11-9-7-2/h8,10,14,16,20,22,24-25,29,31,43H,6-7,9,11-13,15,17-19,21,23,26-28,30,32-42H2,1-5H3
Instrument: waters xevo g2 TOF
Instrument type: ESI-TOF
Ms type: MS2
Ion mode: POSITIVE
Ionization: ESI
Collision energy: 6.0000000
Column name: Acquity CSHC18
Retention time: 11.120 min
Base peak: 766.57524
Precursor m/z: 766.57524
Precursor type: [M+H]+
m/z	relative intensity
145.9555	2
184.0743	6
278.186	2
341.1798	38
357.1519	8
358.1538	2
387.1693	2
395.2767	2
402.7648	343
403.2658	171
403.7683	44
404.2686	5
404.7637	7
410.751	21
411.2539	6
411.7512	4
464.3501	69
465.3542	10
466.3564	2
468.2463	3
475.731	3
524.2465	1
537.3946	25
552.1854	3
583.3864	2
587.3807	19
588.3857	5
589.3842	4
609.3642	3
659.9669	37
660.4689	34
660.9704	16
661.4713	5
661.9686	2
667.9529	6
668.9556	6
669.4567	3
669.9491	2
766.5741	999
767.5776	515
