Mass spectrum: 3-Hydroxy-3-methylglutaryl-CoA; LC-ESI-ITFT; MS2; CE: 100;  [M-H]-
Name: 3-Hydroxy-3-methylglutaryl-CoA
Class: Lipids and lipid-like molecules; Fatty Acyls; Fatty acyl thioesters
Formula: C27H44N7O20P3S
Exact mass: 911.15747
SMILES: C[C@](O)(CC(O)=O)CC(=O)SCCNC(=O)CCNC(=O)C(O)C(C)(C)COP(O)(=O)OP(O)(=O)OC[C@H]1O[C@H]([C@H](O)[C@@H]1OP(O)(O)=O)N1C=NC2=C1N=CN=C2N
InChI: InChI=1S/C27H44N7O20P3S/c1-26(2,21(40)24(41)30-5-4-15(35)29-6-7-58-17(38)9-27(3,42)8-16(36)37)11-51-57(48,49)54-56(46,47)50-10-14-20(53-55(43,44)45)19(39)25(52-14)34-13-33-18-22(28)31-12-32-23(18)34/h12-14,19-21,25,39-40,42H,4-11H2,1-3H3,(H,29,35)(H,30,41)(H,36,37)(H,46,47)(H,48,49)(H2,28,31,32)(H2,43,44,45)/t14-,19-,20-,21?,25-,27+/m1/s1
Instrument: Thermo Scientific Q-Exactive Focus
Instrument type: LC-ESI-ITFT
Ms type: MS2
Ion mode: NEGATIVE
Ionization: ESI
Collision energy: 100
Column name: Acquity CSHC18
Retention time: 2.587 min
Base peak: 910.15021
Precursor m/z: 910.15021
Precursor type: [M-H]-
m/z	relative intensity
78.9578	999
96.9683	83
134.046	192
158.9243	340
163.0155	21
174.9792	31
191.0107	36
208.0372	60
272.957	35
339.0779	50
