Mass spectrum: (E)-Ferulic acid; LC-ESI-QTOF; MS2; CE: 35.00;  [M-H2O+H]+
Name: (E)-Ferulic acid
Class: NA
Formula: C10H10O4
Exact mass: 194.0579
SMILES: COC1=C(C=CC(=C1)C=CC(=O)O)O
InChI: InChI=1S/C10H10O4/c1-14-9-6-7(2-4-8(9)11)3-5-10(12)13/h2-6,11H,1H3,(H,12,13)
Instrument: Bruker MicrOTOF-Q
Instrument type: LC-ESI-QTOF
Ms type: MS2
Ion mode: POSITIVE
Ionization: ESI
Collision energy: 35.00
Column name: Acquity CSHC18
Retention time: NA
Base peak: 177.0541
Precursor m/z: 177.0541
Precursor type: [M-H2O+H]+
m/z	relative intensity
115.545	441
128.0572	316
133.0289	216
133.5479	357
134.0382	216
135.5591	241
139.0482	632
140.0534	474
140.5594	349
141.0601	216
141.0722	241
147.5712	341
148.5703	374
153.0643	374
153.5621	263
154.0658	588
154.5644	269
155.0702	532
156.0801	749
157.0907	340
160.5662	739
161.0721	406
161.5755	708
162.0803	405
167.0748	423
168.0784	442
169.0894	220
171.1015	366
182.0959	999
183.094	183
184.1014	224
