Mass spectrum: Ginsenoside Rd; LC-ESI-QFT; MS2; CE: 15,30,45 (NCE);  [M+Na]+
Name: Ginsenoside Rd
Class: NA
Formula: C48H82O18
Exact mass: 946.5501
SMILES: CC(C)=CCCC(C)(OC1OC(CO)C(O)C(O)C1O)C1CCC2(C)C1C(O)CC1C3(C)CCC(OC4OC(CO)C(O)C(O)C4OC4OC(CO)C(O)C(O)C4O)C(C)(C)C3CCC21C
InChI: InChI=1S/C48H82O18/c1-22(2)10-9-14-48(8,66-42-39(60)36(57)33(54)26(20-50)62-42)23-11-16-47(7)31(23)24(52)18-29-45(5)15-13-30(44(3,4)28(45)12-17-46(29,47)6)64-43-40(37(58)34(55)27(21-51)63-43)65-41-38(59)35(56)32(53)25(19-49)61-41/h10,23-43,49-60H,9,11-21H2,1-8H3
Instrument: QE Focus, Thermo Scientfic; UPLC I-Class, Waters
Instrument type: LC-ESI-QFT
Ms type: MS2
Ion mode: POSITIVE
Ionization: ESI
Collision energy: 15,30,45 (NCE)
Column name: Acquity CSHC18
Retention time: 3.030 min
Base peak: 969.5414
Precursor m/z: 969.5414
Precursor type: [M+Na]+
Precursor intensity: 9278814
m/z	relative intensity
203.053	32
218.1403	1
245.0622	5
347.0944	4
365.1064	77
465.373	1
552.5754	1
627.419	1
641.8967	1
643.9523	1
645.4396	3
655.2817	1
789.4775	783
790.4809	42
969.5416	999
