Mass spectrum: 3-Methylhistidine; LC-ESI-ITFT; MS2; CE: 100;  [M-H]-
Name: 3-Methylhistidine
Class: Organic acids and derivatives; Carboxylic acids and derivatives; Amino acids, peptides, and analogues
Formula: C7H11N3O2
Exact mass: 169.08513
SMILES: CN1C=NC=C1C[C@H](N)C(O)=O
InChI: InChI=1S/C7H11N3O2/c1-10-4-9-3-5(10)2-6(8)7(11)12/h3-4,6H,2,8H2,1H3,(H,11,12)/t6-/m0/s1
Instrument: Thermo Scientific Q-Exactive Focus
Instrument type: LC-ESI-ITFT
Ms type: MS2
Ion mode: NEGATIVE
Ionization: ESI
Collision energy: 100
Column name: Acquity CSHC18
Retention time: 2.321 min
Base peak: 168.07785
Precursor m/z: 168.07785
Precursor type: [M-H]-
m/z	relative intensity
83.6737	900
96.4078	830
97.9584	858
98.6121	932
120.499	861
124.2032	814
127.7293	912
142.4242	883
143.4799	842
175.8188	999
