Mass spectrum: Camalexin; LC-ESI-QTOF; MS2; CE: 15.00;  [M+H]+
Name: Camalexin
Class: NA
Formula: C11H8N2S
Exact mass: 200.0408
SMILES: C1=CC=C2C(=C1)C(=CN2)C3=NC=CS3
InChI: InChI=1S/C11H8N2S/c1-2-4-10-8(3-1)9(7-13-10)11-12-5-6-14-11/h1-7,13H
Instrument: Bruker MicrOTOF-Q
Instrument type: LC-ESI-QTOF
Ms type: MS2
Ion mode: POSITIVE
Ionization: ESI
Collision energy: 15.00
Column name: Acquity CSHC18
Retention time: NA
Base peak: 201.0481
Precursor m/z: 201.0481
Precursor type: [M+H]+
m/z	relative intensity
142.0532	23
160.0222	26
168.0698	47
169.0764	49
173.0288	51
174.0385	68
200.0421	88
200.9427	115
201.0611	118
202.0531	708
203.0468	999
