Mass spectrum: Quercitrin; LC-ESI-QFT; MS2; CE: 15,30,45 (NCE);  [2M+Na]+
Name: Quercitrin
Class: NA
Formula: C21H20O11
Exact mass: 448.1006
SMILES: CC1OC(OC2=C(OC3=CC(O)=CC(O)=C3C2=O)C2=CC(O)=C(O)C=C2)C(O)C(O)C1O
InChI: InChI=1S/C21H20O11/c1-7-15(26)17(28)18(29)21(30-7)32-20-16(27)14-12(25)5-9(22)6-13(14)31-19(20)8-2-3-10(23)11(24)4-8/h2-7,15,17-18,21-26,28-29H,1H3
Instrument: QE Focus, Thermo Scientfic; UPLC I-Class, Waters
Instrument type: LC-ESI-QFT
Ms type: MS2
Ion mode: POSITIVE
Ionization: ESI
Collision energy: 15,30,45 (NCE)
Column name: Acquity CSHC18
Retention time: 1.627 min
Base peak: 919.1893
Precursor m/z: 919.1893
Precursor type: [2M+Na]+
Precursor intensity: 4566305
m/z	relative intensity
67.325	2
71.05	6
85.029	16
99.3244	3
100.8071	3
109.6781	3
165.6421	3
169.0469	67
324.0242	14
325.0317	380
368.2454	3
382.4441	4
471.0898	999
627.0614	6
725.7618	3
784.9038	4
917.4332	4
