Mass spectrum: 3-NITRO-L-TYROSINE; LC-ESI-QTOF; MS2; CE: 40;  [M-H]-
Name: 3-NITRO-L-TYROSINE
Class: NA
Formula: C9H10N2O5
Exact mass: 226.05897
SMILES: C1=CC(=C(C=C1CC(C(=O)O)N)[N+](=O)[O-])O
InChI: InChI=1S/C9H10N2O5/c10-6(9(13)14)3-5-1-2-8(12)7(4-5)11(15)16/h1-2,4,6,12H,3,10H2,(H,13,14)
Instrument: Agilent 6530Â Q-TOF LC/MS
Instrument type: LC-ESI-QTOF
Ms type: MS2
Ion mode: NEGATIVE
Ionization: ESI
Collision energy: 40
Column name: NA
Retention time: 0.200 min
Base peak: 225.04923
Precursor m/z: 225.04923
Precursor type: [M-H]-
Precursor intensity: 160
m/z	relative intensity
42.0074	100
46.0064	104
77.0405	107
88.0321	112
89.0439	123
90.0477	125
91.0162	128
117.0452	135
118.0556	150
119.0452	163
123.0514	222
133.056	232
134.0467	265
135.0378	289
136.0426	327
138.0161	464
148.0552	501
149.0372	699
163.0562	999
