Mass spectrum: (E)-Ferulic acid; LC-ESI-QTOF; MS2; CE: 15.00;  [M+H]+
Name: (E)-Ferulic acid
Class: NA
Formula: C10H10O4
Exact mass: 194.0579
SMILES: COC1=C(C=CC(=C1)C=CC(=O)O)O
InChI: InChI=1S/C10H10O4/c1-14-9-6-7(2-4-8(9)11)3-5-10(12)13/h2-6,11H,1H3,(H,12,13)
Instrument: Bruker MicrOTOF-Q
Instrument type: LC-ESI-QTOF
Ms type: MS2
Ion mode: POSITIVE
Ionization: ESI
Collision energy: 15.00
Column name: Acquity CSHC18
Retention time: NA
Base peak: 195.0652
Precursor m/z: 195.0652
Precursor type: [M+H]+
m/z	relative intensity
140.021	333
158.0397	277
161.1074	305
173.0611	402
174.0297	416
177.0682	333
186.0216	430
202.0218	999
203.0244	360
217.0494	888
217.1038	541
