Mass spectrum: Demissidine; APCI-ITFT; MS2; CE: CID 35;  [M-H]-
Name: Demissidine
Class: NA
Formula: C27H45NO
Exact mass: 399.35012
SMILES: CC1CCC2C(C3C(N2C1)CC4C3(CCC5C4CCC6C5(CCC(C6)O)C)C)C
InChI: InChI=1S/C27H45NO/c1-16-5-8-23-17(2)25-24(28(23)15-16)14-22-20-7-6-18-13-19(29)9-11-26(18,3)21(20)10-12-27(22,25)4/h16-25,29H,5-15H2,1-4H3
Instrument: Orbitrap Elite
Instrument type: APCI-ITFT
Ms type: MS2
Ion mode: NEGATIVE
Ionization: APCI
Collision energy: CID 35
Column name: Acquity CSHC18
Retention time: 0.106 min
Base peak: 398.34300
Precursor m/z: 398.34300
Precursor type: [M-H]-
Precursor intensity: 168985
m/z	relative intensity
150.0931	41
187.1344	51
227.2014	75
241.2162	41
255.2333	45
295.1399	21
317.1614	39
317.1952	19
318.164	23
326.2473	23
335.3314	27
339.1663	113
340.1697	30
351.3643	33
352.2274	52
354.2059	42
354.2458	63
355.2644	33
356.2618	25
366.2818	158
367.285	142
368.2928	39
370.2368	24
370.2734	25
378.2789	19
379.2852	35
380.2905	40
382.2745	52
394.3145	106
395.3143	122
396.325	214
397.2239	999
397.3334	55
397.363	100
398.2293	252
398.3017	213
398.3701	35
