Mass spectrum: Cystine; LC-ESI-ITFT; MS2; CE: 45eV;  [M-H]-
Name: Cystine
Class: aminoacid
Formula: C6H12N2O4S2
Exact mass: 240.0238
SMILES: C(C(C(=O)O)N)SSCC(C(=O)O)N
InChI: InChI=1S/C6H12N2O4S2/c7-3(5(9)10)1-13-14-2-4(8)6(11)12/h3-4H,1-2,7-8H2,(H,9,10)(H,11,12)
Instrument: LTQ Orbitrap XL, Thermo Scientfic; Dionex Ultimate 300
Instrument type: LC-ESI-ITFT
Ms type: MS2
Ion mode: NEGATIVE
Ionization: ESI
Collision energy: 45eV
Column name: Alltima C18
Retention time: 2.1 min
Base peak: 239.0148
Precursor m/z: 239.0148
Precursor type: [M-H]-
m/z	relative intensity
85.9481	999
148.1305	128
194.4644	193
213.9417	225
