Mass spectrum: N-Methyl-DL-glutamic acid; LC-ESI-QTOF; MS2; CE: -10, -35, -60V;  [M-H]-
Name: N-Methyl-DL-glutamic acid
Class: NA
Formula: C6H11NO4
Exact mass: 161.0688
SMILES: CNC(CCC(=O)O)C(=O)O
InChI: InChI=1S/C6H11NO4/c1-7-4(6(10)11)2-3-5(8)9/h4,7H,2-3H2,1H3,(H,8,9)(H,10,11)
Instrument: TripleToF 5600; Sciex
Instrument type: LC-ESI-QTOF
Ms type: MS2
Ion mode: NEGATIVE
Ionization: ESI
Collision energy: -10, -35, -60V
Column name: Acquity CSHC18
Retention time: 2.385 min
Base peak: 160.0617
Precursor m/z: 160.0617
Precursor type: [M-H]-
Precursor intensity: 139493.4
m/z	relative intensity
76.969	48
94.9793	24
114.0505	50
116.0734	155
136.9933	25
142.0519	408
143.0514	48
146.0212	24
155.0031	149
156.1035	49
158.117	38
159.1037	39
160.0613	999
