Mass spectrum: cinchonine; LC-ESI-QFT; MS2; CE: 15,30,45 (NCE);  [M+ACN+2H]2+
Name: cinchonine
Class: NA
Formula: C19H22N2O
Exact mass: 294.1732
SMILES: OC(C1CC2CCN1CC2C=C)C1=CC=NC2=CC=CC=C12
InChI: InChI=1S/C19H22N2O/c1-2-13-12-21-10-8-14(13)11-18(21)19(22)16-7-9-20-17-6-4-3-5-15(16)17/h2-7,9,13-14,18-19,22H,1,8,10-12H2
Instrument: QE Focus, Thermo Scientfic; UPLC I-Class, Waters
Instrument type: LC-ESI-QFT
Ms type: MS2
Ion mode: POSITIVE
Ionization: ESI
Collision energy: 15,30,45 (NCE)
Column name: Acquity CSHC18
Retention time: 0.957 min
Base peak: 168.6072
Precursor m/z: 168.6072
Precursor type: [M+ACN+2H]2+
Precursor intensity: 65460690
m/z	relative intensity
68.0543	17
69.0644	19
81.0607	23
82.0697	27
83.0799	29
94.0638	31
95.0798	37
96.0849	49
98.0734	61
107.0705	99
108.0872	104
121.075	115
158.072	128
159.0797	151
160.0849	999
