Mass spectrum: Maltohexaose; LC-ESI-QTOF; MS2; CE: -10, -35, -60V;  [M-H]-
Name: Maltohexaose
Class: NA
Formula: C36H62O31
Exact mass: 990.3275
SMILES: C(C1C(C(C(C(O1)OC2C(OC(C(C2O)O)OC3C(OC(C(C3O)O)OC4C(OC(C(C4O)O)OC5C(OC(C(C5O)O)OC6C(OC(C(C6O)O)O)CO)CO)CO)CO)CO)O)O)O)O
InChI: InChI=1S/C36H62O31/c37-1-7-13(43)14(44)21(51)32(58-7)64-27-9(3-39)60-34(23(53)16(27)46)66-29-11(5-41)62-36(25(55)18(29)48)67-30-12(6-42)61-35(24(54)19(30)49)65-28-10(4-40)59-33(22(52)17(28)47)63-26-8(2-38)57-31(56)20(50)15(26)45/h7-56H,1-6H2
Instrument: TripleToF 5600; Sciex
Instrument type: LC-ESI-QTOF
Ms type: MS2
Ion mode: NEGATIVE
Ionization: ESI
Collision energy: -10, -35, -60V
Column name: Acquity CSHC18
Retention time: 0.712 min
Base peak: 989.3347
Precursor m/z: 989.3347
Precursor type: [M-H]-
Precursor intensity: 75620.81
m/z	relative intensity
97.0334	9
101.0283	56
115.0415	4
143.0339	38
161.0459	437
162.0543	31
179.057	204
221.065	75
264.0782	11
281.0938	119
282.0911	15
341.1119	304
342.1216	34
383.1274	204
425.137	143
426.133	26
443.142	87
444.1351	15
503.1709	178
545.1858	251
546.1817	67
587.1669	92
587.2012	116
588.1867	28
605.1889	33
665.2183	282
666.2235	65
707.2275	258
708.2377	67
749.2125	19
767.2358	23
827.274	469
828.2731	163
869.2465	46
869.2965	125
870.2831	36
911.2985	49
929.3052	25
967.2646	3
972.3199	12
987.3119	18
989.3355	999
