Mass spectrum: Dopamine; LC-ESI-ITFT; MS2; CE: 60;  [M+H]+
Name: Dopamine
Class: Benzenoids; Phenols; Benzenediols
Formula: C8H11NO2
Exact mass: 153.07898
SMILES: NCCC1=CC(O)=C(O)C=C1
InChI: InChI=1S/C8H11NO2/c9-4-3-6-1-2-7(10)8(11)5-6/h1-2,5,10-11H,3-4,9H2
Instrument: Thermo Scientific Q-Exactive Focus
Instrument type: LC-ESI-ITFT
Ms type: MS2
Ion mode: POSITIVE
Ionization: ESI
Collision energy: 60
Column name: Acquity CSHC18
Retention time: 1.750 min
Base peak: 154.08626
Precursor m/z: 154.08626
Precursor type: [M+H]+
m/z	relative intensity
50.0157	69
51.0236	92
53.0028	211
54.0107	17
62.0156	40
63.0235	220
65.0391	999
89.0389	35
91.0546	73
133.5007	17
