Mass spectrum: Vinblastine; ESI-QTOF; MS2; CE: 30 eV;  [M+H]+
Name: Vinblastine
Class: NA
Formula: C46H58N4O9
Exact mass: 810.4204
SMILES: CCC1(CC2(CC(C=3C=C4C(=CC3OC)N(C)C5(C64CCN7CC=CC(CC)(C67[H])C(C5(C(=O)OC)O)(OC(C)=O)[H])[H])(C8=C(CCN(C2)C1)C9=CC=CC=C9N8)C(=O)OC)[H])O
InChI: InChI=1S/C46H58N4O9/c1-8-42(54)23-28-24-45(40(52)57-6,36-30(15-19-49(25-28)26-42)29-13-10-11-14-33(29)47-36)32-21-31-34(22-35(32)56-5)48(4)38-44(31)17-20-50-18-12-16-43(9-2,37(44)50)39(59-27(3)51)46(38,55)41(53)58-7/h10-14,16,21-22,28,37-39,47,54-55H,8-9,15,17-20,23-26H2,1-7H3
Instrument: Synapt (HDMS 1st gen)
Instrument type: ESI-QTOF
Ms type: MS2
Ion mode: POSITIVE
Ionization: ESI
Collision energy: 30 eV
Column name: Acquity CSHC18
Retention time: 15.186 min
Base peak: 811.4295
Precursor m/z: 811.4295
Precursor type: [M+H]+
Precursor intensity: 466.52
m/z	relative intensity
194.0119	5
295.1746	5
337.194	11
353.1826	11
523.6697	5
624.273	5
733.4557	5
785.028	5
801.8824	5
811.4273	999
