Mass spectrum: THIOPURINE S-METHYLETHER; LC-ESI-QFT; MS2; CE: 30eV;  [M+H]+
Name: THIOPURINE S-METHYLETHER
Class: NA
Formula: C6H6N4S
Exact mass: 166.03132
SMILES: CSC1=NC=NC2=C1NC=N2
InChI: InChI=1S/C6H6N4S/c1-11-6-4-5(8-2-7-4)9-3-10-6/h2-3H,1H3,(H,7,8,9,10)
Instrument: Q-Exactive Orbitrap, Thermo Scientfic; Ultimate 3000 HPLC, Thermo Scientfic
Instrument type: LC-ESI-QFT
Ms type: MS2
Ion mode: POSITIVE
Ionization: ESI
Collision energy: 30eV
Column name: Acquity CSHC18
Retention time: 5.846 min
Base peak: 167.0386
Precursor m/z: 167.0386
Precursor type: [M+H]+
Precursor intensity: 171
m/z	relative intensity
51.4378	13
51.5902	14
52.9089	11
56.5416	14
57.8194	11
68.5054	12
73.6124	14
75.0777	15
83.9567	13
86.5528	14
87.0222	11
93.6293	14
94.0406	14
105.3695	16
106.0405	22
108.2304	15
119.0356	159
120.043	18
124.0508	19
125.0045	68
126.0124	334
132.2433	14
133.051	67
134.0589	250
136.8046	14
137.0459	21
150.049	18
151.0616	76
152.0153	349
154.5539	16
167.154	18
168.036	203
168.0421	999
