Mass spectrum: Baicalin; LC-ESI-QTOF; MS2; CE: 50eV;  [M+H]+
Name: Baicalin
Class: Flavone
Formula: C21H18O11
Exact mass: 446.0849
SMILES: C1=CC=C(C=C1)C2=CC(=O)C3=C(C(=C(C=C3O2)OC4C(C(C(C(O4)C(=O)O)O)O)O)O)O
InChI: InChI=1S/C21H18O11/c22-9-6-10(8-4-2-1-3-5-8)30-11-7-12(14(23)15(24)13(9)11)31-21-18(27)16(25)17(26)19(32-21)20(28)29/h1-7,16-19,21,23-27H,(H,28,29)
Instrument: TIMS-TOF Pro, Bruker Daltonik; Elute UHPLC System, Bruker Daltonik
Instrument type: LC-ESI-QTOF
Ms type: MS2
Ion mode: POSITIVE
Ionization: ESI
Collision energy: 50eV
Column name: Acquity CSHC18
Retention time: 6.432 min
Base peak: 447.0887
Precursor m/z: 447.0887
Precursor type: [M+H]+
Precursor intensity: 387038.4
m/z	relative intensity
103.0522	1
105.0331	1
113.5217	1
123.0045	4
179.0514	1
209.8995	1
225.052	4
236.1365	1
243.7105	1
251.7061	1
253.047	7
257.0123	1
270.9913	2
271.0305	29
271.0566	999
271.3231	1
271.5244	6
271.9114	1
272.0396	5
272.0606	101
272.6445	1
273.0324	2
273.0638	11
273.6671	1
284.3283	1
447.0249	1
447.0887	23
