Mass spectrum: 13,14-dihydro-15-keto Prostaglandin A2; ESI-TOF; MS2; CE: 6.0000000;  [M+H]+
Name: 13,14-dihydro-15-keto Prostaglandin A2
Class: NA
Formula: C20H30O4
Exact mass: 334.21441
SMILES: O=C1[C@H](C/C=C\CCCC(O)=O)[C@@H](CCC(CCCCC)=O)C=C1
InChI: InChI=1S/C20H30O4/c1-2-3-6-9-17(21)14-12-16-13-15-19(22)18(16)10-7-4-5-8-11-20(23)24/h4,7,13,15-16,18H,2-3,5-6,8-12,14H2,1H3,(H,23,24)/b7-4-/t16-,18+/m0/s1
Instrument: waters xevo g2 TOF
Instrument type: ESI-TOF
Ms type: MS2
Ion mode: POSITIVE
Ionization: ESI
Collision energy: 6.0000000
Column name: Acquity CSHC18
Retention time: 3.797 min
Base peak: 335.22241
Precursor m/z: 335.22241
Precursor type: [M+H]+
m/z	relative intensity
165.0931	24
173.0924	2
178.0836	61
185.0968	32
196.0925	14
201.1261	10
204.1108	14
207.5997	5
215.1435	50
216.147	7
219.1379	8
233.1536	18
249.1798	2
281.1899	86
282.1938	15
289.2138	3
299.2006	534
300.2039	8
317.2107	999
318.2143	224
335.2217	405
336.2378	88
