Mass spectrum: Quercetin-3-O-sophoroside; LC-ESI-QTOF; MS2; CE: 50eV;  [M+H]+
Name: Quercetin-3-O-sophoroside
Class: Flavonol
Formula: C27H30O17
Exact mass: 626.1483
SMILES: C1=CC(=C(C=C1C2=C(C(=O)C3=C(C=C(C=C3O2)O)O)OC4C(C(C(C(O4)CO)O)O)OC5C(C(C(C(O5)CO)O)O)O)O)O
InChI: InChI=1S/C27H30O17/c28-6-14-17(34)20(37)22(39)26(41-14)44-25-21(38)18(35)15(7-29)42-27(25)43-24-19(36)16-12(33)4-9(30)5-13(16)40-23(24)8-1-2-10(31)11(32)3-8/h1-5,14-15,17-18,20-22,25-35,37-39H,6-7H2
Instrument: TIMS-TOF Pro, Bruker Daltonik; Elute UHPLC System, Bruker Daltonik
Instrument type: LC-ESI-QTOF
Ms type: MS2
Ion mode: POSITIVE
Ionization: ESI
Collision energy: 50eV
Column name: Acquity CSHC18
Retention time: 4.616 min
Base peak: 627.1530
Precursor m/z: 627.1530
Precursor type: [M+H]+
Precursor intensity: 19279.31
m/z	relative intensity
53.1097	2
69.0345	5
85.0283	22
97.0165	2
109.0232	4
127.0349	6
145.0497	11
163.0568	20
214.1272	2
266.5823	2
271.8304	5
302.9525	5
302.9857	8
303.0133	18
303.0465	999
303.1597	3
303.5438	8
304.0361	24
304.0527	148
304.1938	3
305.0522	15
326.1239	1
413.2309	2
465.1009	59
466.0971	10
