Mass spectrum: Eugenol; LC-ESI-QTOF; MS2; CE: 15.00;  [M+H]+
Name: Eugenol
Class: NA
Formula: C10H12O2
Exact mass: 164.0837
SMILES: COC1=C(C=CC(=C1)CC=C)O
InChI: InChI=1S/C10H12O2/c1-3-4-8-5-6-9(11)10(7-8)12-2/h3,5-7,11H,1,4H2,2H3
Instrument: Bruker MicrOTOF-Q
Instrument type: LC-ESI-QTOF
Ms type: MS2
Ion mode: POSITIVE
Ionization: ESI
Collision energy: 15.00
Column name: Acquity CSHC18
Retention time: NA
Base peak: 165.0910
Precursor m/z: 165.0910
Precursor type: [M+H]+
m/z	relative intensity
52.8572	2
103.0664	3
105.0655	3
106.0722	2
109.0267	54
109.6681	2
110.0316	10
115.0524	20
115.5077	2
117.0563	2
120.103	2
121.0665	7
122.0343	33
123.0419	5
123.9432	5
124.0498	999
124.2162	3
124.2792	2
124.3351	4
124.4113	2
124.4829	2
124.5794	2
124.9461	2
125.0533	92
131.046	27
132.0527	10
133.0631	129
133.1613	2
134.065	22
135.0489	10
136.9603	2
137.0583	459
137.1664	2
137.3036	2
137.3544	2
138.0642	37
147.0762	8
149.0566	30
150.0644	27
151.0709	3
163.0704	3
164.0716	2
165.0896	25
166.0911	2
276.0622	3
297.4953	2
