Mass spectrum: (-)-Jasmonic acid; LC-ESI-QTOF; MS2; CE: 35.00;  [2M-H]-
Name: (-)-Jasmonic acid
Class: NA
Formula: C12H18O3
Exact mass: 210.1256
SMILES: CCC=CCC1C(CCC1=O)CC(=O)O
InChI: InChI=1S/C12H18O3/c1-2-3-4-5-10-9(8-12(14)15)6-7-11(10)13/h3-4,9-10H,2,5-8H2,1H3,(H,14,15)
Instrument: Bruker MicrOTOF-Q
Instrument type: LC-ESI-QTOF
Ms type: MS2
Ion mode: NEGATIVE
Ionization: ESI
Collision energy: 35.00
Column name: Acquity CSHC18
Retention time: NA
Base peak: 419.2439
Precursor m/z: 419.2439
Precursor type: [2M-H]-
m/z	relative intensity
97.07	1
106.47	1
107.05	1
108.99	1
109.07	25
110.07	2
111.08	1
123.08	2
123.45	1
135.08	1
137.1	1
140.57	1
145.11	1
147.12	3
149.03	1
149.1	11
150.1	1
163.11	8
164.12	1
164.7	1
164.96	1
165.13	103
165.48	1
166.13	13
167.13	1
191.11	2
191.79	1
207.92	1
208.05	2
208.21	1
208.31	7
208.58	3
208.74	2
209.12	999
209.33	4
209.47	3
209.62	2
209.8	2
210.12	154
210.29	1
210.37	1
210.46	1
210.58	1
210.65	1
210.75	1
210.84	1
210.95	1
211.03	1
211.12	19
211.24	1
211.46	1
212.13	2
