Mass spectrum: Methyl caffeate; LC-ESI-QTOF; MS2; CE: 50eV;  [M-H]-
Name: Methyl caffeate
Class: Phenylpropanoid
Formula: C10H10O4
Exact mass: 194.0579
SMILES: COC(=O)C=CC1=CC(=C(C=C1)O)O
InChI: InChI=1S/C10H10O4/c1-14-10(13)5-3-7-2-4-8(11)9(12)6-7/h2-6,11-12H,1H3
Instrument: TIMS-TOF Pro, Bruker Daltonik; Elute UHPLC System, Bruker Daltonik
Instrument type: LC-ESI-QTOF
Ms type: MS2
Ion mode: NEGATIVE
Ionization: ESI
Collision energy: 50eV
Column name: Acquity CSHC18
Retention time: 6.106 min
Base peak: 193.0486
Precursor m/z: 193.0486
Precursor type: [M-H]-
Precursor intensity: 307800.5
m/z	relative intensity
25.1348	4
41.0029	4
49.0076	5
49.8055	5
50.499	6
65.0009	7
66.7619	4
70.2764	3
70.9787	4
72.6059	4
74.3738	7
77.0393	32
78.0418	7
87.0226	9
89.0017	13
91.6646	3
100.5851	3
104.025	93
104.2389	3
105.0341	43
106.04	8
107.0132	9
108.0203	39
108.5946	2
115.0176	61
116.0191	5
117.0301	2
119.0567	3
131.8167	3
132.0195	456
132.1627	2
132.5872	3
132.8887	4
133.0287	999
133.1821	5
133.3581	4
133.5694	3
133.7335	3
133.9615	3
134.0363	398
134.1422	3
134.6284	3
135.0385	53
136.0151	5
137.0228	5
161.0019	180
161.2611	3
161.3833	3
162.0269	14
178.0241	25
179.0291	3
193.0486	746
193.4409	5
