Mass spectrum: 2-arachidonoyl glycerol; ESI-TOF; MS2; CE: 6.0000000;  [M+H]+
Name: 2-arachidonoyl glycerol
Class: NA
Formula: C23H38O4
Exact mass: 378.27701
SMILES: [H]OC([H])([H])C([H])(OC(=O)C([H])([H])C([H])([H])C([H])([H])C([H])=C([H])C([H])([H])C([H])=C([H])C([H])([H])C([H])=C([H])C([H])([H])C([H])=C([H])C([H])([H])C([H])([H])C([H])([H])C([H])([H])C([H])([H])[H])C([H])([H])O[H]
InChI: InChI=1S/C23H38O4/c1-2-3-4-5-6-7-8-9-10-11-12-13-14-15-16-17-18-19-23(26)27-22(20-24)21-25/h6-7,9-10,12-13,15-16,22,24-25H,2-5,8,11,14,17-21H2,1H3
Instrument: waters xevo g2 TOF
Instrument type: ESI-TOF
Ms type: MS2
Ion mode: POSITIVE
Ionization: ESI
Collision energy: 6.0000000
Column name: Acquity CSHC18
Retention time: 7.364 min
Base peak: 379.28501
Precursor m/z: 379.28501
Precursor type: [M+H]+
m/z	relative intensity
81.071	5
91.0556	4
93.0706	4
105.0709	14
117.0712	9
129.0624	8
131.0303	33
135.1176	19
137.1143	3
147.1171	19
149.1053	17
157.102	16
159.1168	11
161.1148	14
163.114	35
163.5977	15
171.1176	32
172.1027	12
173.1331	16
175.1122	20
177.1646	17
185.1328	16
187.149	23
189.1644	47
191.1801	26
199.1484	15
200.1148	16
201.1645	17
203.1799	101
204.1651	2
209.1204	195
209.622	42
213.1643	11
217.1593	8
221.1557	11
223.1339	10
243.2105	15
245.2277	41
246.2296	7
259.2432	33
260.2466	10
267.1634	74
268.1658	10
269.2274	251
271.2386	11
287.2376	525
288.2412	119
289.2456	21
305.2481	159
343.1952	40
344.1983	5
359.1676	61
360.1705	13
361.275	391
362.2769	191
377.2657	8
379.2847	999
380.2877	409
