Mass spectrum: Orotic acid; LC-ESI-QTOF; MS2; CE: 10;  [M-H]-
Name: Orotic acid
Class: NA
Formula: C5H4N2O4
Exact mass: 156.0171
SMILES: C1=C(NC(=O)NC1=O)C(=O)O
InChI: InChI=1S/C5H4N2O4/c8-3-1-2(4(9)10)6-5(11)7-3/h1H,(H,9,10)(H2,6,7,8,11)
Instrument: impact II
Instrument type: LC-ESI-QTOF
Ms type: MS2
Ion mode: NEGATIVE
Ionization: ESI
Collision energy: 10
Column name: Acquity CSHC18
Retention time: 1.698 min
Base peak: 155.0090
Precursor m/z: 155.0090
Precursor type: [M-H]-
m/z	relative intensity
90.9916	13
111.02	999
112.0231	66
155.0086	16
