Mass spectrum: Glycyrrhizic acid; LC-ESI-QTOF; MS2; CE: 36.43;  [M-H]-
Name: Glycyrrhizic acid
Class: NA
Formula: C42H62O16
Exact mass: 822.4038
SMILES: CC1(C2CCC3(C(C2(CCC1OC4C(C(C(C(O4)C(=O)O)O)O)OC5C(C(C(C(O5)C(=O)O)O)O)O)C)C(=O)C=C6C3(CCC7(C6CC(CC7)(C)C(=O)O)C)C)C)C
InChI: InChI=1S/C42H62O16/c1-37(2)21-8-11-42(7)31(20(43)16-18-19-17-39(4,36(53)54)13-12-38(19,3)14-15-41(18,42)6)40(21,5)10-9-22(37)55-35-30(26(47)25(46)29(57-35)33(51)52)58-34-27(48)23(44)24(45)28(56-34)32(49)50/h16,19,21-31,34-35,44-48H,8-15,17H2,1-7H3,(H,49,50)(H,51,52)(H,53,54)
Instrument: Bruker MicrOTOF-Q
Instrument type: LC-ESI-QTOF
Ms type: MS2
Ion mode: NEGATIVE
Ionization: ESI
Collision energy: 36.43
Column name: Acquity CSHC18
Retention time: NA
Base peak: 821.3965
Precursor m/z: 821.3965
Precursor type: [M-H]-
m/z	relative intensity
81.0339	3
95.0137	6
99.0076	12
101.0223	9
103.0073	4
111.0062	4
113.023	216
114.029	13
115.0024	17
116.0065	3
116.6155	4
117.0175	18
129.0176	15
131.0347	30
133.0142	22
139.0027	3
157.014	56
158.0161	7
159.0258	7
163.0208	9
174.9902	138
176.0254	14
177.0234	4
193.0181	132
194.0383	89
195.0408	13
201.0353	8
217.0379	11
231.0434	5
233.0266	13
234.0303	4
235.0442	189
236.0495	19
241.8517	3
246.9379	7
254.2768	3
259.0445	19
260.3837	3
261.0597	93
262.0569	10
263.0379	82
264.0047	4
268.1048	4
271.0455	12
272.0527	5
275.0368	56
276.0341	9
277.0519	27
278.0598	3
287.9878	3
288.8406	178
289.9878	29
291.0376	41
292.0305	6
293.047	10
297.46	3
304.9736	4
307.0637	140
307.6191	4
308.0691	14
309.0629	4
310.4085	4
315.8708	3
316.3254	3
327.6529	4
332.9399	158
334.0456	35
335.0491	9
346.3066	3
351.6339	424
355.0108	4
356.4585	3
469.3299	35
470.3254	11
511.3366	4
537.3545	15
538.3451	3
551.3332	10
569.3397	5
570.3505	3
583.359	18
584.3592	11
627.3467	47
628.3525	15
629.3524	3
645.3582	96
646.3587	41
647.3609	8
648.3475	4
687.3596	5
697.3829	9
741.3858	3
759.393	38
760.396	14
761.3955	8
777.4	6
778.4048	3
803.3825	11
804.3844	5
820.6941	4
821.3959	999
822.2175	247
823.0845	37
