Mass spectrum: 2-Fluoro-2-Deoxy-D-Glucose (Fluorodeoxyglucose F18); ESI-TOF; MS2; CE: 0.6458333;  [M+H]+
Name: 2-Fluoro-2-Deoxy-D-Glucose (Fluorodeoxyglucose F18)
Class: NA
Formula: C6H11FO5
Exact mass: 182.05905
SMILES: O=C[C@H](F)[C@@H](O)[C@H](O)[C@H](O)CO
InChI: InChI=1S/C6H11FO5/c7-3(1-8)5(11)6(12)4(10)2-9/h1,3-6,9-12H,2H2/t3-,4+,5+,6+/m0/s1
Instrument: waters xevo g2 TOF
Instrument type: ESI-TOF
Ms type: MS2
Ion mode: POSITIVE
Ionization: ESI
Collision energy: 0.6458333
Column name: Acquity CSHC18
Retention time: 0.545 min
Base peak: 183.06705
Precursor m/z: 183.06705
Precursor type: [M+H]+
m/z	relative intensity
85.0294	210
87.0251	5
98.9761	999
101.0407	5
109.0297	89
113.9394	113
114.9713	258
126.9935	310
136.9734	147
143.952	217
147.0467	56
156.9592	156
158.9966	861
159.9451	5
165.0571	5
169.9655	146
173.9605	131
174.9682	983
176.9702	285
178.9658	141
182.0338	52
184.9767	5
185.9596	417
186.9695	451
189.0751	5
192.0375	5
198.9718	161
202.0407	5
202.5423	5
203.0449	5
205.0471	138
206.0513	5
211.0282	5
219.019	104
221.0146	140
227.9524	5
228.9894	95
234.9903	101
235.9813	5
237.0317	55
258.0951	5
258.5079	5
267.0185	5
281.0352	5
281.985	5
282.9926	5
284.9915	5
286.9886	5
293.07	5
293.5747	5
296.0006	209
297.0075	226
298.0081	5
299.0054	5
302.0592	5
308.004	5
319.5246	5
324.0155	5
326.0099	202
327.0134	5
389.0844	5
418.0376	5
419.0417	5
470.9505	5
471.9561	5
