Mass spectrum: DHAP; LC-ESI-QTOF; MS2; CE: 15 / 50;  [M-H]-
Name: DHAP
Class: NA
Formula: C3H7O6P
Exact mass: 169.9980
SMILES: C(C(=O)COP(=O)(O)O)O
InChI: InChI=1S/C3H7O6P/c4-1-3(5)2-9-10(6,7)8/h4H,1-2H2,(H2,6,7,8)
Instrument: impact II
Instrument type: LC-ESI-QTOF
Ms type: MS2
Ion mode: NEGATIVE
Ionization: ESI
Collision energy: 15 / 50
Column name: Acquity CSHC18
Retention time: 0.691 min
Base peak: 168.9906
Precursor m/z: 168.9906
Precursor type: [M-H]-
m/z	relative intensity
78.9591	999
96.9698	280
