Mass spectrum: Ginkgolic acid C15:1; LC-ESI-QFT; MS2; CE: 15,30,45 (NCE);  [M-H]-
Name: Ginkgolic acid C15:1
Class: NA
Formula: C22H34O3
Exact mass: 346.2508
SMILES: CCCCCC\\C=C\\CCCCCCCC1=C(C(O)=O)C(O)=CC=C1
InChI: InChI=1S/C22H34O3/c1-2-3-4-5-6-7-8-9-10-11-12-13-14-16-19-17-15-18-20(23)21(19)22(24)25/h7-8,15,17-18,23H,2-6,9-14,16H2,1H3,(H,24,25)/b8-7+
Instrument: QE Focus, Thermo Scientfic; UPLC I-Class, Waters
Instrument type: LC-ESI-QFT
Ms type: MS2
Ion mode: NEGATIVE
Ionization: ESI
Collision energy: 15,30,45 (NCE)
Column name: Acquity CSHC18
Retention time: 6.533 min
Base peak: 345.2434
Precursor m/z: 345.2434
Precursor type: [M-H]-
Precursor intensity: 2178072000
m/z	relative intensity
50.2971	2
51.2642	2
51.7398	2
56.7415	2
60.0177	2
77.2628	2
80.5319	5
92.02	4
106.041	28
119.0489	28
121.0283	10
121.1912	2
123.6303	2
133.065	4
134.1924	2
161.096	4
175.1126	4
189.1265	2
301.2539	999
