Mass spectrum: L-Leucine; LC-ESI-ITFT; MS2; CE: 60;  [M+H]+
Name: L-Leucine
Class: Organic acids and derivatives; Carboxylic acids and derivatives; Amino acids, peptides, and analogues
Formula: C6H13NO2
Exact mass: 131.09463
SMILES: CC(C)C[C@H](N)C(O)=O
InChI: InChI=1S/C6H13NO2/c1-4(2)3-5(7)6(8)9/h4-5H,3,7H2,1-2H3,(H,8,9)/t5-/m0/s1
Instrument: Thermo Scientific Q-Exactive Focus
Instrument type: LC-ESI-ITFT
Ms type: MS2
Ion mode: POSITIVE
Ionization: ESI
Collision energy: 60
Column name: Acquity CSHC18
Retention time: 1.837 min
Base peak: 132.10191
Precursor m/z: 132.10191
Precursor type: [M+H]+
m/z	relative intensity
53.0028	999
57.9354	888
59.9308	971
64.7856	422
66.9376	436
89.0785	425
92.5224	628
100.269	430
118.4453	424
138.111	445
