Mass spectrum: Kaempferol; LC-ESI-QFT; MS2; CE: NCE_15_30_73;  [M-H]-
Name: Kaempferol
Class: NA
Formula: C15H10O6
Exact mass: 286.0477
SMILES: C1=CC(=CC=C1C2=C(C(=O)C3=C(C=C(C=C3O2)O)O)O)O
InChI: InChI=1S/C15H10O6/c16-8-3-1-7(2-4-8)15-14(20)13(19)12-10(18)5-9(17)6-11(12)21-15/h1-6,16-18,20H
Instrument: Thermo_Qexactive_Plus
Instrument type: LC-ESI-QFT
Ms type: MS2
Ion mode: NEGATIVE
Ionization: ESI
Collision energy: NCE_15_30_73
Column name: Acquity CSHC18
Retention time: 6.794 min
Base peak: 285.0408
Precursor m/z: 285.0408
Precursor type: [M-H]-
Precursor intensity: 1840970000
m/z	relative intensity
52.3444	2
57.7079	2
63.4771	2
65.0022	2
70.8438	2
83.0127	2
89.5593	3
93.0328	3
99.0774	3
107.0124	3
109.028	3
123.0077	3
135.0081	3
143.0488	3
145.0279	3
151.003	3
154.0409	3
155.0495	3
159.0439	3
163.0031	3
164.0095	4
165.0193	4
169.0425	4
171.0446	4
173.0232	5
185.0614	5
187.0389	5
189.0556	5
197.0605	5
199.0379	5
201.056	5
211.0396	5
213.0547	5
214.0254	6
215.0342	6
223.3604	6
227.0337	7
228.1213	7
229.051	7
239.0363	8
240.0415	8
241.0501	9
243.0306	9
254.1003	10
256.0362	12
257.0453	16
267.0313	19
284.0329	27
285.0364	999
