Mass spectrum: alpha-Tocopherol; LC-ESI-ITFT; MS2; CE: 40;  [M+H]+
Name: alpha-Tocopherol
Class: Lipids and lipid-like molecules; Prenol lipids; Quinone and hydroquinone lipids
Formula: C29H50O2
Exact mass: 430.38108
SMILES: CC(C)CCC[C@@H](C)CCC[C@@H](C)CCC[C@]1(C)CCC2=C(C)C(O)=C(C)C(C)=C2O1
InChI: InChI=1S/C29H50O2/c1-20(2)12-9-13-21(3)14-10-15-22(4)16-11-18-29(8)19-17-26-25(7)27(30)23(5)24(6)28(26)31-29/h20-22,30H,9-19H2,1-8H3/t21-,22-,29-/m1/s1
Instrument: Thermo Scientific Q-Exactive Focus
Instrument type: LC-ESI-ITFT
Ms type: MS2
Ion mode: POSITIVE
Ionization: ESI
Collision energy: 40
Column name: Acquity CSHC18
Retention time: 1.467 min
Base peak: 431.38837
Precursor m/z: 431.38837
Precursor type: [M+H]+
m/z	relative intensity
55.0548	35
57.0704	60
69.0704	63
71.086	39
136.0882	51
137.0961	99
164.0832	150
165.0868	57
165.0911	999
166.0943	262
