Mass spectrum: L-Rhamnose; LC-ESI-QTOF; MS2; CE: -10, -35, -60V;  [M-H]-
Name: L-Rhamnose
Class: NA
Formula: C6H12O5
Exact mass: 164.0685
SMILES: CC1C(C(C(C(O1)O)O)O)O
InChI: InChI=1S/C6H12O5/c1-2-3(7)4(8)5(9)6(10)11-2/h2-10H,1H3
Instrument: TripleToF 5600; Sciex
Instrument type: LC-ESI-QTOF
Ms type: MS2
Ion mode: NEGATIVE
Ionization: ESI
Collision energy: -10, -35, -60V
Column name: Acquity CSHC18
Retention time: 0.693 min
Base peak: 163.0620
Precursor m/z: 163.0620
Precursor type: [M-H]-
Precursor intensity: 139475.8
m/z	relative intensity
73.0309	219
103.0421	215
105.0203	323
119.0396	215
136.9398	219
141.0201	329
155.0018	999
156.9941	215
160.9396	215
163.0651	323
