Mass spectrum: ITACONATE; LC-ESI-QFT; MS2; CE: 30eV;  [M+H]+
Name: ITACONATE
Class: NA
Formula: C5H6O4
Exact mass: 130.02661
SMILES: OC(=O)CC(=C)C(O)=O
InChI: InChI=1S/C5H6O4/c1-3(5(8)9)2-4(6)7/h1-2H2,(H,6,7)(H,8,9)
Instrument: Q-Exactive Orbitrap, Thermo Scientfic; Ultimate 3000 HPLC, Thermo Scientfic
Instrument type: LC-ESI-QFT
Ms type: MS2
Ion mode: POSITIVE
Ionization: ESI
Collision energy: 30eV
Column name: Acquity CSHC18
Retention time: 1.375 min
Base peak: 131.0339
Precursor m/z: 131.0339
Precursor type: [M+H]+
Precursor intensity: 177
m/z	relative intensity
55.055	7
55.8744	7
56.1133	7
57.0342	13
59.191	8
59.9328	7
63.3145	7
63.7799	7
70.2133	8
71.0499	7
71.5744	8
71.9299	156
72.0447	8
72.9377	48
74.0606	45
77.4827	8
84.5867	8
84.9601	10
85.0289	242
85.9738	10
88.0761	509
89.0603	12
89.0795	57
89.9403	178
90.9037	18
90.9481	49
97.0078	11
107.9507	241
113.0236	97
120.0236	9
125.9611	314
130.1227	999
130.9663	85
131.0855	10
131.1261	237
131.1306	12
148.9771	296
