Mass spectrum: Hesperidin; ESI-TOF; MS2; CE: 0.6458333;  [M+H]+
Name: Hesperidin
Class: NA
Formula: C28H34O15
Exact mass: 610.18977
SMILES: COC1=CC=C(C=C1O)C1CC(=O)C2=C(O1)C=C(OC1OC(COC3OC(C)C(O)C(O)C3O)C(O)C(O)C1O)C=C2O
InChI: InChI=1S/C28H34O15/c1-10-21(32)23(34)25(36)27(40-10)39-9-19-22(33)24(35)26(37)28(43-19)41-12-6-14(30)20-15(31)8-17(42-18(20)7-12)11-3-4-16(38-2)13(29)5-11/h3-7,10,17,19,21-30,32-37H,8-9H2,1-2H3
Instrument: waters xevo g2 TOF
Instrument type: ESI-TOF
Ms type: MS2
Ion mode: POSITIVE
Ionization: ESI
Collision energy: 0.6458333
Column name: Acquity CSHC18
Retention time: 2.355 min
Base peak: 611.19777
Precursor m/z: 611.19777
Precursor type: [M+H]+
m/z	relative intensity
71.0498	23
83.0498	50
85.0468	2
86.0318	1
97.0474	3
109.028	4
117.0337	20
118.0385	1
125.0602	4
129.055	61
145.0404	62
147.0542	17
149.06	20
151.0757	24
152.0783	1
153.0252	651
154.0217	52
163.0139	3
165.0186	40
166.0246	2
175.0891	6
177.0549	463
178.0581	54
179.034	92
180.0365	9
191.0334	24
195.0289	244
196.0321	25
201.0514	3
203.0339	25
204.0382	2
205.9864	1
219.0305	155
220.0313	19
231.0289	5
246.0478	21
261.0395	17
262.0476	1
263.0548	244
264.0582	35
265.0611	3
267.0637	2
271.1155	21
272.1184	1
273.0754	64
274.0788	9
279.0493	2
281.0653	51
282.0699	6
285.0819	25
287.0541	7
297.061	3
301.0704	27
303.086	999
304.0892	189
305.091	31
306.0946	2
315.0862	52
316.0895	10
325.0757	8
327.0869	46
328.0889	9
331.0994	5
339.079	4
341.034	8
345.0964	60
346.0993	8
353.102	8
354.1011	1
355.9968	2
365.103	2
369.0965	86
370.0995	19
371.1048	4
377.0998	1
381.0942	11
382.0979	1
383.1105	1
386.0071	2
393.0969	4
394.1012	1
395.1121	58
396.1159	13
397.1167	1
401.05	1
411.1073	8
413.1222	94
414.1263	23
416.019	6
429.0695	4
430.0309	3
431.1335	44
432.1363	7
433.1257	3
437.1239	1
447.128	15
448.129	2
449.1437	60
450.1465	14
463.1224	12
464.1265	2
465.1387	29
466.1424	7
476.1153	24
476.6171	7
477.1146	2
479.1246	2
488.0369	2
489.0457	1
518.0514	15
519.057	7
557.166	5
558.1703	1
575.1729	2
593.1834	1
603.1678	49
604.1703	15
605.1702	3
611.1965	36
612.2009	11
