Mass spectrum: Argininosuccinic acid; LC-ESI-QTOF; MS2; CE: 60;  [M+H]+
Name: Argininosuccinic acid
Class: NA
Formula: C10H18N4O6
Exact mass: 290.12263
SMILES: N[C@@H](CCCNC(=N)N[C@@H](CC(O)=O)C(O)=O)C(O)=O
InChI: InChI=1S/C10H18N4O6/c11-5(8(17)18)2-1-3-13-10(12)14-6(9(19)20)4-7(15)16/h5-6H,1-4,11H2,(H,15,16)(H,17,18)(H,19,20)(H3,12,13,14)/t5-,6-/m0/s1
Instrument: impact II
Instrument type: LC-ESI-QTOF
Ms type: MS2
Ion mode: POSITIVE
Ionization: ESI
Collision energy: 60
Column name: Acquity CSHC18
Retention time: 1.961 min
Base peak: 291.13000
Precursor m/z: 291.13000
Precursor type: [M+H]+
m/z	relative intensity
46.0291	25
53.0032	1
53.0142	2
53.0391	5
55.0178	1
55.0301	3
55.0547	7
56.0504	1
57.0453	3
58.0538	2
60.0563	8
68.0503	10
69.0085	1
69.0344	1
69.0459	2
70.0295	21
70.0658	999
70.0757	58
70.1029	3
70.1241	11
70.133	16
70.1448	4
70.1744	1
70.1774	1
71.0134	6
71.0247	5
71.05	22
71.0692	40
72.0816	16
74.0243	23
79.0541	1
81.0451	2
85.0761	1
86.0713	1
88.0398	28
88.051	2
95.0236	1
95.0597	1
97.0764	3
98.0351	5
98.0603	3
98.0718	2
99.0071	4
99.0195	1
105.0694	2
112.0514	3
112.0874	1
113.0707	2
116.0453	7
116.07	4
127.0509	1
