Mass spectrum: ZINC97971704; LC-ESI-QTOF; MS2; CE: 20-40eV;  [M-H]-
Name: ZINC97971704
Class: Hydroxycinnamic acid derivative
Formula: C21H28O13
Exact mass: 488.1530
SMILES: COC=1C=C(C=CC1OC2(C(C(C(C(CO)(O2)[H])(O)[H])(O)[H])(OC3(C(C(CO)(CO3)O)(O)[H])[H])[H])[H])C(=C(C(=O)O)[H])[H]
InChI: InChI=1S/C21H28O13/c1-30-12-6-10(3-5-14(24)25)2-4-11(12)32-19-17(16(27)15(26)13(7-22)33-19)34-20-18(28)21(29,8-23)9-31-20/h2-6,13,15-20,22-23,26-29H,7-9H2,1H3,(H,24,25)
Instrument: Impact II, Bruker; Dionex 3000, Thermo Scientific
Instrument type: LC-ESI-QTOF
Ms type: MS2
Ion mode: POSITIVE
Ionization: ESI
Collision energy: 20-40eV
Column name: Acquity CSHC18
Retention time: 3.827 min
Base peak: 487.1461
Precursor m/z: 487.1461
Precursor type: [M-H]-
Precursor intensity: 18261.88
m/z	relative intensity
119.0408	83
133.0339	127
160.0402	142
175.0654	254
487.1651	999
