Mass spectrum: Prostaglandin E2 p-benzamidophenyl ester; ESI-TOF; MS2; CE: 6.0000000;  [M+H]+
Name: Prostaglandin E2 p-benzamidophenyl ester
Class: NA
Formula: C33H41NO6
Exact mass: 547.29339
SMILES: O=C1[C@H](C/C=C\CCCC(OC2=CC=C(NC(C3=CC=CC=C3)=O)C=C2)=O)[C@@H](/C=C/[C@@H](O)CCCCC)[C@H](O)C1
InChI: InChI=1S/C33H41NO6/c1-2-3-7-14-26(35)19-22-29-28(30(36)23-31(29)37)15-10-4-5-11-16-32(38)40-27-20-17-25(18-21-27)34-33(39)24-12-8-6-9-13-24/h4,6,8-10,12-13,17-22,26,28-29,31,35,37H,2-3,5,7,11,14-16,23H2,1H3,(H,34,39)/b10-4-,22-19+/t26-,28+,29+,31+/m0/s1
Instrument: waters xevo g2 TOF
Instrument type: ESI-TOF
Ms type: MS2
Ion mode: POSITIVE
Ionization: ESI
Collision energy: 6.0000000
Column name: Acquity CSHC18
Retention time: 4.356 min
Base peak: 548.30139
Precursor m/z: 548.30139
Precursor type: [M+H]+
m/z	relative intensity
207.1052	1
214.0872	67
217.1401	1
275.6168	31
276.1176	8
284.6218	96
285.124	22
293.6268	11
299.2009	65
300.203	7
301.1881	1
317.2115	61
318.2143	10
331.2211	1
458.2691	3
462.2893	1
486.2663	3
494.2667	3
512.2807	363
513.2852	135
514.2831	19
530.2909	999
531.2947	397
532.2963	86
533.2951	7
