Mass spectrum: Umbelliferone; LC-ESI-QTOF; MS2; CE: 50eV;  [M-H]-
Name: Umbelliferone
Class: Coumarin
Formula: C9H6O3
Exact mass: 162.0317
SMILES: C1=CC(=CC2=C1C=CC(=O)O2)O
InChI: InChI=1S/C9H6O3/c10-7-3-1-6-2-4-9(11)12-8(6)5-7/h1-5,10H
Instrument: TIMS-TOF Pro, Bruker Daltonik; Elute UHPLC System, Bruker Daltonik
Instrument type: LC-ESI-QTOF
Ms type: MS2
Ion mode: NEGATIVE
Ionization: ESI
Collision energy: 50eV
Column name: Acquity CSHC18
Retention time: 5.292 min
Base peak: 161.0234
Precursor m/z: 161.0234
Precursor type: [M-H]-
Precursor intensity: 38140.19
m/z	relative intensity
41.0025	88
48.9818	10
62.0152	17
63.0226	61
65.0018	141
77.0377	66
89.0388	31
91.0165	35
104.0265	10
106.0351	14
117.0304	42
118.0372	8
122.858	6
133.0273	543
133.8396	6
134.0312	27
161.0234	999
