Mass spectrum: Fluprostenol; ESI-TOF; MS2; CE: 0.6458333;  [M+H]+
Name: Fluprostenol
Class: NA
Formula: C23H29F3O6
Exact mass: 458.19162
SMILES: C1C(C(C(C1O)C=CC(COC2=CC=CC(=C2)C(F)(F)F)O)CC=CCCCC(=O)O)O
InChI: InChI=1S/C23H29F3O6/c24-23(25,26)15-6-5-7-17(12-15)32-14-16(27)10-11-19-18(20(28)13-21(19)29)8-3-1-2-4-9-22(30)31/h1,3,5-7,10-12,16,18-21,27-29H,2,4,8-9,13-14H2,(H,30,31)
Instrument: waters xevo g2 TOF
Instrument type: ESI-TOF
Ms type: MS2
Ion mode: POSITIVE
Ionization: ESI
Collision energy: 0.6458333
Column name: Acquity CSHC18
Retention time: 3.739 min
Base peak: 459.19962
Precursor m/z: 459.19962
Precursor type: [M+H]+
m/z	relative intensity
79.0545	253
81.0699	99
83.0498	817
91.0549	819
93.0703	270
95.0492	53
105.0715	736
115.0552	276
117.0712	999
119.0858	563
128.063	471
129.0706	812
131.0861	625
133.1006	195
135.0817	95
141.0698	638
142.0769	276
143.0864	653
145.1025	249
147.1179	90
153.0714	245
154.0791	168
155.0848	851
156.0907	96
157.1021	379
159.0817	154
161.0974	367
165.0702	184
167.0798	92
168.0929	99
169.1015	497
171.1167	227
173.0959	99
176.9868	145
183.1176	555
184.1256	66
187.1277	21
189.1291	108
197.1323	384
198.1381	71
199.1127	248
201.0731	15
207.1271	245
215.1434	194
225.1277	499
226.13	54
233.1529	40
243.1375	652
244.1417	103
245.1507	78
261.1482	471
262.1515	83
279.1599	996
280.1615	157
281.085	730
299.0839	65
337.1411	80
401.1051	113
419.1138	227
422.0771	162
434.0846	36
