Mass spectrum: Chenodeoxycholic acid glycine conjugate; LC-ESI-ITFT; MS2; CE: 20;  [M+H]+
Name: Chenodeoxycholic acid glycine conjugate
Class: Lipids and lipid-like molecules; Steroids and steroid derivatives; Bile acids, alcohols and derivatives
Formula: C26H43NO5
Exact mass: 449.31412
SMILES: [H][C@@]12C[C@H](O)CC[C@]1(C)C1CC[C@]3(C)[C@H](CCC3C1[C@H](O)C2)[C@H](C)CCC(=O)NCC(O)=O
InChI: InChI=1S/C26H43NO5/c1-15(4-7-22(30)27-14-23(31)32)18-5-6-19-24-20(9-11-26(18,19)3)25(2)10-8-17(28)12-16(25)13-21(24)29/h15-21,24,28-29H,4-14H2,1-3H3,(H,27,30)(H,31,32)/t15-,16+,17-,18-,19?,20?,21-,24?,25+,26-/m1/s1
Instrument: Thermo Scientific Q-Exactive Focus
Instrument type: LC-ESI-ITFT
Ms type: MS2
Ion mode: POSITIVE
Ionization: ESI
Collision energy: 20
Column name: Acquity CSHC18
Retention time: 0.632 min
Base peak: 450.32141
Precursor m/z: 450.32141
Precursor type: [M+H]+
m/z	relative intensity
76.0397	62
158.081	65
175.1479	37
201.1636	48
238.1435	31
321.2572	76
339.2677	177
414.288	65
414.2998	999
432.3106	41
