Mass spectrum: O-Acetyl-L-Serinhydrochlorid,; LC-ESI-QTOF; MS2; CE: -10, -35, -60V;  [M-H]-
Name: O-Acetyl-L-Serinhydrochlorid,
Class: NA
Formula: C5H9NO4
Exact mass: 147.0532
SMILES: CC(=O)OCC(C(=O)O)N
InChI: InChI=1S/C5H9NO4/c1-3(7)10-2-4(6)5(8)9/h4H,2,6H2,1H3,(H,8,9)
Instrument: TripleToF 5600; Sciex
Instrument type: LC-ESI-QTOF
Ms type: MS2
Ion mode: NEGATIVE
Ionization: ESI
Collision energy: -10, -35, -60V
Column name: Acquity CSHC18
Retention time: 2.981 min
Base peak: 146.0473
Precursor m/z: 146.0473
Precursor type: [M-H]-
Precursor intensity: 502530.8
m/z	relative intensity
72.0449	46
74.0258	366
75.0287	5
84.0467	191
87.0443	4
98.025	128
104.0332	65
116.0256	374
116.0362	374
117.0374	26
145.5708	14
146.0481	999
