Mass spectrum: D-+ - Raffinose; LC-ESI-QTOF; MS2; CE: 30.46;  [M-H2O+H]+
Name: D-+ - Raffinose
Class: NA
Formula: C18H32O16
Exact mass: 504.1690
SMILES: C(C1C(C(C(C(O1)OCC2C(C(C(C(O2)OC3(C(C(C(O3)CO)O)O)CO)O)O)O)O)O)O)O
InChI: InChI=1S/C18H32O16/c19-1-5-8(22)11(25)13(27)16(31-5)30-3-7-9(23)12(26)14(28)17(32-7)34-18(4-21)15(29)10(24)6(2-20)33-18/h5-17,19-29H,1-4H2
Instrument: Bruker MicrOTOF-Q
Instrument type: LC-ESI-QTOF
Ms type: MS2
Ion mode: POSITIVE
Ionization: ESI
Collision energy: 30.46
Column name: Acquity CSHC18
Retention time: NA
Base peak: 487.1657
Precursor m/z: 487.1657
Precursor type: [M-H2O+H]+
m/z	relative intensity
97.0297	326
99.0395	247
109.0284	192
127.0339	356
136.0605	128
145.0476	999
157.0086	276
163.0615	375
168.9987	168
181.0723	143
183.046	103
183.1026	123
184.9997	148
187.0259	207
199.0099	262
203.0382	113
217.0289	128
229.0224	182
247.0371	791
259.0373	306
265.0456	237
271.0436	123
273.0475	118
289.0485	464
301.0369	113
305.1347	108
307.0492	138
331.0377	98
337.0634	133
349.0869	202
350.1072	128
365.2036	103
366.0976	103
383.308	128
428.1114	108
450.2282	158
583.4673	138
