Mass spectrum: KYNURENATE; LC-ESI-QTOF; MS2; CE: 10;  [M+H]+
Name: KYNURENATE
Class: NA
Formula: C10H7NO3
Exact mass: 189.04259
SMILES: OC(=O)C1=CC(=O)C2=CC=CC=C2N1
InChI: InChI=1S/C10H7NO3/c12-9-5-8(10(13)14)11-7-4-2-1-3-6(7)9/h1-5H,(H,11,12)(H,13,14)
Instrument: Agilent 6530Â Q-TOF LC/MS
Instrument type: LC-ESI-QTOF
Ms type: MS2
Ion mode: POSITIVE
Ionization: ESI
Collision energy: 10
Column name: NA
Retention time: 0.200 min
Base peak: 190.05274
Precursor m/z: 190.05274
Precursor type: [M+H]+
Precursor intensity: 73.5
m/z	relative intensity
89.05	29
109.0054	31
116.0599	33
144.0788	76
144.444	122
144.5496	248
172.0669	273
190.0764	999
