Mass spectrum: D-MANNOSAMINE; LC-ESI-QFT; MS2; CE: 30eV;  [M+H]+
Name: D-MANNOSAMINE
Class: NA
Formula: C6H13NO5
Exact mass: 179.07937
SMILES: C(C1C(C(C(C(O1)O)N)O)O)O
InChI: InChI=1S/C6H13NO5/c7-3-5(10)4(9)2(1-8)12-6(3)11/h2-6,8-11H,1,7H2
Instrument: Q-Exactive Orbitrap, Thermo Scientfic; Ultimate 3000 HPLC, Thermo Scientfic
Instrument type: LC-ESI-QFT
Ms type: MS2
Ion mode: POSITIVE
Ionization: ESI
Collision energy: 30eV
Column name: Acquity CSHC18
Retention time: 0.561 min
Base peak: 180.0867
Precursor m/z: 180.0867
Precursor type: [M+H]+
Precursor intensity: 115
m/z	relative intensity
54.3804	1
55.0187	2
55.4819	1
56.0504	9
57.0344	1
58.0296	2
60.0453	140
61.0293	6
62.4539	1
68.0503	10
69.0344	14
70.0295	1
70.0659	11
71.0498	1
72.0452	248
73.0293	1
73.0486	7
76.9106	1
80.0503	7
81.0343	6
84.0452	333
85.0292	87
85.0486	7
86.0608	8
86.4724	1
88.9532	1
90.0557	7
90.9772	1
95.9741	5
96.0451	37
97.0292	53
98.0608	76
99.0449	2
99.0643	1
100.0401	2
101.818	1
102.0557	20
103.0397	3
108.0452	9
109.0292	8
111.9651	2
111.969	65
114.0556	46
114.0596	1
115.0396	18
116.0712	6
117.9802	3
126.0555	103
127.0395	35
127.0588	6
129.9795	27
131.6617	1
132.066	2
139.9637	17
144.0661	194
145.0499	15
145.0693	8
153.9808	3
154.1	1
155.9753	2
156.9755	2
157.9743	23
162.0766	999
163.0736	2
163.0799	41
174.9857	1
180.0872	118
181.0908	5
