Mass spectrum: Daidzein; LC-ESI-QTOF; MS2; CE: 15;  [M-H]-
Name: Daidzein
Class: NA
Formula: C15H10O4
Exact mass: 254.0579
SMILES: C1=CC(=CC=C1C2=COC3=C(C2=O)C=CC(=C3)O)O
InChI: InChI=1S/C15H10O4/c16-10-3-1-9(2-4-10)13-8-19-14-7-11(17)5-6-12(14)15(13)18/h1-8,16-17H
Instrument: Bruker MicrOTOF-Q
Instrument type: LC-ESI-QTOF
Ms type: MS2
Ion mode: NEGATIVE
Ionization: ESI
Collision energy: 15
Column name: Acquity CSHC18
Retention time: NA
Base peak: 253.0506
Precursor m/z: 253.0506
Precursor type: [M-H]-
m/z	relative intensity
45.5357	2
46.3927	2
48.683	2
49.8618	2
50.816	2
52.2613	2
53.0627	2
53.8884	2
54.8132	2
56.2723	2
57.2633	2
57.8489	2
58.504	2
59.1435	2
60.0728	2
61.7919	2
62.4916	2
62.9661	2
63.448	2
64.4781	2
65.3579	2
66.3648	2
67.265	2
67.8259	2
68.7353	2
72.1121	2
72.8234	2
73.4229	2
74.3037	2
76.3885	2
76.8034	2
77.4269	2
79.0122	2
80.4714	2
82.1466	2
84.3058	2
85.3913	2
86.8177	2
88.3789	2
89.5241	2
91.4651	2
92.6745	2
93.4297	2
93.8651	2
95.3528	2
96.2704	2
97.1062	2
97.7097	2
98.741	2
100.7076	2
103.6077	2
105.0424	2
106.0092	2
106.8743	2
108.0287	2
109.821	2
111.9214	3
112.9179	2
114.9118	2
116.8653	2
121.2824	2
123.8363	3
124.6252	2
126.5522	2
130.2009	2
132.6102	9
134.6875	13
137.2338	2
139.4042	2
141.1799	2
144.1887	2
146.2657	2
147.5735	2
152.5519	2
156.9128	2
159.8127	2
165.2504	2
169.9271	4
179.0734	5
186.9941	2
189.1237	2
195.4464	12
200.9599	2
201.9896	2
203.7611	2
206.0147	2
209.7375	36
215.8445	2
218.6748	2
225.545	34
233.8234	3
236.4144	3
238.0767	2
239.1441	3
240.4881	2
242.8661	2
244.4707	2
245.3174	2
246.1228	3
246.9594	2
248.2774	2
248.7925	2
249.8122	2
251.5395	52
254.7325	999
