Mass spectrum: N-ACETYLPHENYLALANINE; LC-ESI-QTOF; MS2; CE: 40;  [M+H]+
Name: N-ACETYLPHENYLALANINE
Class: NA
Formula: C11H13NO3
Exact mass: 207.08954
SMILES: CC(=O)N[C@@H](CC1=CC=CC=C1)C(O)=O
InChI: InChI=1S/C11H13NO3/c1-8(13)12-10(11(14)15)7-9-5-3-2-4-6-9/h2-6,10H,7H2,1H3,(H,12,13)(H,14,15)/t10-/m0/s1
Instrument: Agilent 6530Â Q-TOF LC/MS
Instrument type: LC-ESI-QTOF
Ms type: MS2
Ion mode: POSITIVE
Ionization: ESI
Collision energy: 40
Column name: NA
Retention time: 0.200 min
Base peak: 208.09540
Precursor m/z: 208.09540
Precursor type: [M+H]+
Precursor intensity: 95.5
m/z	relative intensity
42.04	30
43.0324	31
51.0334	37
65.0448	39
68.0532	40
77.0656	43
79.0708	51
80.0497	52
82.7956	71
91.0759	74
92.0548	80
93.0804	91
102.0534	112
103.0895	129
103.4836	132
104.0577	164
118.0753	300
119.0707	599
120.1142	606
120.592	999
