Mass spectrum: (S)-(-)-Limonene; APCI-ITFT; MS2; CE: 35 CID;  [M+H]+
Name: (S)-(-)-Limonene
Class: NA
Formula: C10H16
Exact mass: 136.12520
SMILES: CC1=CCC(CC1)C(=C)C
InChI: InChI=1S/C10H16/c1-8(2)10-6-4-9(3)5-7-10/h4,10H,1,5-7H2,2-3H3
Instrument: Orbitrap Elite
Instrument type: APCI-ITFT
Ms type: MS2
Ion mode: POSITIVE
Ionization: APCI
Collision energy: 35 CID
Column name: Acquity CSHC18
Retention time: 0.098 min
Base peak: 137.13220
Precursor m/z: 137.13220
Precursor type: [M+H]+
Precursor intensity: 36555800
m/z	relative intensity
73.1219	1
77.0383	4
79.0539	37
80.0578	3
81.0697	596
83.0851	1
91.054	16
92.0573	5
93.0697	46
94.073	36
95.0491	27
95.0855	667
105.045	4
105.0696	2
106.0726	3
107.0853	33
108.0885	92
109.0649	53
109.0922	5
109.101	89
117.0697	2
118.0729	1
119.0857	20
120.0888	4
121.1018	2
122.072	6
134.6157	1
135.1167	3
136.0213	3
136.083	15
136.1204	199
137.0599	21
137.0957	665
137.1326	999
