Mass spectrum: Osthenol; LC-ESI-ITFT; MS2; CE: 45eV;  [M-H]-
Name: Osthenol
Class: coumarin
Formula: C14H14O3
Exact mass: 230.0943
SMILES: CC(=CCC1=C(C=CC2=C1OC(=O)C=C2)O)C
InChI: InChI=1S/C14H14O3/c1-9(2)3-6-11-12(15)7-4-10-5-8-13(16)17-14(10)11/h3-5,7-8,15H,6H2,1-2H3
Instrument: LTQ Orbitrap XL, Thermo Scientfic; Dionex Ultimate 300
Instrument type: LC-ESI-ITFT
Ms type: MS2
Ion mode: NEGATIVE
Ionization: ESI
Collision energy: 45eV
Column name: Alltima C18
Retention time: 25.4 min
Base peak: 229.0846
Precursor m/z: 229.0846
Precursor type: [M-H]-
m/z	relative intensity
129.9986	4
173.9742	999
174.9662	7
211.1287	4
214.0049	29
229.076	48
