Mass spectrum: cinchonine; LC-ESI-QFT; MS2; CE: 15,30,45 (NCE);  [M+2H]2+
Name: cinchonine
Class: NA
Formula: C19H22N2O
Exact mass: 294.1732
SMILES: OC(C1CC2CCN1CC2C=C)C1=CC=NC2=CC=CC=C12
InChI: InChI=1S/C19H22N2O/c1-2-13-12-21-10-8-14(13)11-18(21)19(22)16-7-9-20-17-6-4-3-5-15(16)17/h2-7,9,13-14,18-19,22H,1,8,10-12H2
Instrument: QE Focus, Thermo Scientfic; UPLC I-Class, Waters
Instrument type: LC-ESI-QFT
Ms type: MS2
Ion mode: POSITIVE
Ionization: ESI
Collision energy: 15,30,45 (NCE)
Column name: Acquity CSHC18
Retention time: 0.950 min
Base peak: 148.0939
Precursor m/z: 148.0939
Precursor type: [M+2H]2+
Precursor intensity: 701675800
m/z	relative intensity
68.0542	195
69.0643	198
81.0648	220
82.0636	288
83.0711	408
94.0566	807
95.0798	945
107.0706	999
