Mass spectrum: 4-(methylsulfinyl)butyl glucosinolate; LC-ESI-QTOF; MS2; CE: 50eV;  [M-H]-
Name: 4-(methylsulfinyl)butyl glucosinolate
Class: aliphatic glucosinolate
Formula: C12H23NO10S3
Exact mass: 437.0484
SMILES: CS(=O)CCCCC(=NOS(=O)(=O)O)SC1C(C(C(C(O1)CO)O)O)O
InChI: InChI=1S/C12H23NO10S3/c1-25(18)5-3-2-4-8(13-23-26(19,20)21)24-12-11(17)10(16)9(15)7(6-14)22-12/h7,9-12,14-17H,2-6H2,1H3,(H,19,20,21)
Instrument: TIMS-TOF Pro, Bruker Daltonik; Elute UHPLC System, Bruker Daltonik
Instrument type: LC-ESI-QTOF
Ms type: MS2
Ion mode: NEGATIVE
Ionization: ESI
Collision energy: 50eV
Column name: Acquity CSHC18
Retention time: 2.984 min
Base peak: 436.0329
Precursor m/z: 436.0329
Precursor type: [M-H]-
Precursor intensity: 69556.45
m/z	relative intensity
34.9145	1
39.7411	1
59.0127	16
63.9597	3
72.4147	1
74.9879	32
75.992	4
76.9849	5
78.9689	1
79.9556	98
80.9626	15
81.9502	5
85.026	3
87.0059	1
95.9382	444
96.0881	1
96.2273	3
96.9571	338
97.9471	8
98.9546	3
101.0232	6
127.9193	1
130.0304	3
177.0049	2
178.0153	56
179.0181	3
180.011	1
182.3626	2
194.0242	1
195.0292	8
208.9339	1
212.247	1
227.0177	2
239.9958	1
245.3083	1
259.0077	6
274.9846	5
290.9796	5
372.037	101
373.0383	17
374.0317	5
421.0126	14
422.0129	1
423.0046	2
436.0329	999
436.3688	2
436.4873	1
