Mass spectrum: N-caffeoyl Putrescine; LC-ESI-ITFT; MS2; CE: 35eV;  [M+H]+
Name: N-caffeoyl Putrescine
Class: Phenolamide
Formula: C13H18N2O3
Exact mass: 250.1317
SMILES: C1=CC(=C(C=C1C=CC(=O)NCCCCN)O)O
InChI: InChI=1S/C13H18N2O3/c14-7-1-2-8-15-13(18)6-4-10-3-5-11(16)12(17)9-10/h3-6,9,16-17H,1-2,7-8,14H2,(H,15,18)
Instrument: LTQ Orbitrap XL, Thermo Scientfic; Dionex Ultimate 300
Instrument type: LC-ESI-ITFT
Ms type: MS2
Ion mode: POSITIVE
Ionization: ESI
Collision energy: 35eV
Column name: Lichrospher C18 Column 250*4 5um, Interchim
Retention time: 18.01 min
Base peak: 251.1387
Precursor m/z: 251.1387
Precursor type: [M+H]+
m/z	relative intensity
71.9503	56
88.9754	150
97.9925	11
113.9748	45
114.9091	32
122.9794	1
135.0344	1
137.977	17
144.9301	8
162.8737	999
163.8618	1
179.86	6
192.0821	66
205.017	1
209.1374	3
215.1549	2
216.0461	1
223.1549	1
234.054	45
251.1056	25
