Mass spectrum: Tifruticin; LC-ESI-ITFT; MS2; CE: 50eV;  [M+H]+
Name: Tifruticin
Class: Sesquiterpenelactone; Heliangolide
Formula: C20H26O7
Exact mass: 378.1679
SMILES: C/C=C(/C)\C(=O)O[C@@H]1C[C@@]([C@@H]2[C@H](O2)[C@@H](/C(=C\[C@@H]3[C@@H]1C(=C)C(=O)O3)/C)O)(C)O
InChI: InChI=1S/C20H26O7/c1-6-9(2)18(22)26-13-8-20(5,24)17-16(27-17)15(21)10(3)7-12-14(13)11(4)19(23)25-12/h6-7,12-17,21,24H,4,8H2,1-3,5H3/b9-6-,10-7-/t12-,13-,14+,15-,16-,17+,20-/m1/s1
Instrument: Q Exactive Plus, ThermoFisher Scientific
Instrument type: LC-ESI-ITFT
Ms type: MS2
Ion mode: POSITIVE
Ionization: ESI
Collision energy: 50eV
Column name: Acquity CSHC18
Retention time: 6.640 min
Base peak: 379.1743
Precursor m/z: 379.1743
Precursor type: [M+H]+
Precursor intensity: 150089300
m/z	relative intensity
55.055	179
58.8422	30
68.421	271
77.161	28
83.0495	999
86.034	29
95.0499	293
99.044	51
99.7262	30
101.0599	36
109.4389	32
111.0449	30
113.0596	33
113.6572	31
117.0706	184
131.0857	45
133.0651	41
145.0649	73
145.1014	37
147.0808	127
149.0597	35
151.0752	52
157.1003	37
159.1159	53
161.06	72
161.0969	31
163.0755	190
165.0909	32
169.1016	217
171.0815	109
173.0963	128
175.0747	225
187.0764	70
187.113	315
189.0898	195
191.0706	44
191.1057	37
197.0958	380
199.1114	55
201.0899	171
203.0706	42
215.1052	745
217.0845	74
225.0926	172
233.1159	287
243.101	672
261.1122	763
279.1211	291
361.1614	39
379.1764	474
