Mass spectrum: 17-trifluoromethylphenyl-13,14-dihydro trinor Prostaglandin F2-alpha; ESI-TOF; MS2; CE: 0.6458333;  [M+H]+
Name: 17-trifluoromethylphenyl-13,14-dihydro trinor Prostaglandin F2-alpha
Class: NA
Formula: C24H33F3O5
Exact mass: 458.22801
SMILES: OC(CCc1cccc(c1)C(F)(F)F)CC[C@H]1C(O)CC(O)C1C/C=C\CCCC(=O)O
InChI: InChI=1S/C24H33F3O5/c25-24(26,27)17-7-5-6-16(14-17)10-11-18(28)12-13-20-19(21(29)15-22(20)30)8-3-1-2-4-9-23(31)32/h1,3,5-7,14,18-22,28-30H,2,4,8-13,15H2,(H,31,32)/b3-1-/t18?,19?,20-,21?,22?/m1/s1
Instrument: waters xevo g2 TOF
Instrument type: ESI-TOF
Ms type: MS2
Ion mode: POSITIVE
Ionization: ESI
Collision energy: 0.6458333
Column name: Acquity CSHC18
Retention time: 3.972 min
Base peak: 459.23601
Precursor m/z: 459.23601
Precursor type: [M+H]+
m/z	relative intensity
79.0358	57
81.0697	51
91.0544	175
93.0702	117
97.0655	34
105.0702	116
107.0862	71
117.0708	136
119.0861	148
121.1023	48
129.0708	148
131.0862	290
132.0921	37
133.1025	67
143.0861	98
145.1018	174
147.1184	147
149.0967	31
153.0509	50
155.0858	56
159.0805	177
160.1208	14
161.1334	68
169.1016	96
171.0641	522
172.1209	94
173.0944	283
174.0604	37
175.1123	21
185.1328	41
187.1473	109
189.1276	375
195.1184	15
197.1327	84
199.0728	33
207.1373	222
209.0748	42
213.0856	20
233.1515	48
243.1179	13
275.1186	29
277.1198	103
279.1355	67
281.1302	26
289.1188	49
293.1551	11
295.1304	45
299.1776	19
303.1361	142
304.1391	19
307.1301	44
321.1457	43
327.1738	98
328.1786	24
343.1613	16
345.1828	249
346.1876	38
347.1824	47
359.2003	66
360.1972	11
365.1896	64
369.1823	140
385.1969	66
387.1936	375
388.1953	56
405.2038	999
406.2057	209
407.2213	7
423.2149	222
424.217	43
436.1296	18
437.1627	238
452.1295	71
459.2363	76
