Mass spectrum: Raffinose; LC-ESI-ITFT; MS2; CE: 60;  [M-H]-
Name: Raffinose
Class: Organic oxygen compounds; Organooxygen compounds; Carbohydrates and carbohydrate conjugates
Formula: C18H32O16
Exact mass: 504.16903
SMILES: OC[C@H]1O[C@@](CO)(OC2O[C@H](COC3O[C@H](CO)[C@H](O)[C@H](O)[C@H]3O)[C@@H](O)[C@H](O)[C@H]2O)[C@@H](O)[C@@H]1O
InChI: InChI=1S/C18H32O16/c19-1-5-8(22)11(25)13(27)16(31-5)30-3-7-9(23)12(26)14(28)17(32-7)34-18(4-21)15(29)10(24)6(2-20)33-18/h5-17,19-29H,1-4H2/t5-,6-,7-,8+,9-,10-,11+,12+,13-,14-,15+,16?,17?,18+/m1/s1
Instrument: Thermo Scientific Q-Exactive Focus
Instrument type: LC-ESI-ITFT
Ms type: MS2
Ion mode: NEGATIVE
Ionization: ESI
Collision energy: 60
Column name: Acquity CSHC18
Retention time: 2.029 min
Base peak: 503.16177
Precursor m/z: 503.16177
Precursor type: [M-H]-
m/z	relative intensity
59.0127	999
71.0126	929
72.9919	90
73.0283	102
85.0283	213
87.0075	189
89.0232	424
101.0232	343
113.0232	183
221.0661	116
