Mass spectrum: N-Feruloyl Lysine; LC-ESI-ITFT; MS2; CE: 35eV;  [M-H]-
Name: N-Feruloyl Lysine
Class: Hydroxycinnamic ester
Formula: C16H22N2O5
Exact mass: 322.1529
SMILES: COc1cc(/C=C/C(=O)NCCCCC(N)C(=O)O)ccc1O
InChI: InChI=1S/C16H22N2O5/c1-23-14-10-11(5-7-13(14)19)6-8-15(20)18-9-3-2-4-12(17)16(21)22/h5-8,10,12,19H,2-4,9,17H2,1H3,(H,18,20)(H,21,22)/b8-6+
Instrument: LTQ Orbitrap XL, Thermo Scientfic; Dionex Ultimate 300
Instrument type: LC-ESI-ITFT
Ms type: MS2
Ion mode: NEGATIVE
Ionization: ESI
Collision energy: 35eV
Column name: Lichrospher C18 Column 250*4 5um, Interchim
Retention time: 28.72 min
Base peak: 321.1443
Precursor m/z: 321.1443
Precursor type: [M-H]-
m/z	relative intensity
261.2004	1
321.2208	999
