Mass spectrum: Adenine, peak 1; LC-ESI-QTOF; MS2; CE: 15;  [M-H]-
Name: Adenine, peak 1
Class: NA
Formula: C5H5N5
Exact mass: 135.0545
SMILES: C1=NC2=NC=NC(=C2N1)N
InChI: InChI=1S/C5H5N5/c6-4-3-5(9-1-7-3)10-2-8-4/h1-2H,(H3,6,7,8,9,10)
Instrument: Bruker MicrOTOF-Q
Instrument type: LC-ESI-QTOF
Ms type: MS2
Ion mode: NEGATIVE
Ionization: ESI
Collision energy: 15
Column name: Acquity CSHC18
Retention time: NA
Base peak: 134.0472
Precursor m/z: 134.0472
Precursor type: [M-H]-
m/z	relative intensity
47.0824	52
51.7105	52
54.1965	78
57.9902	50
63.8224	47
66.7566	51
70.6249	52
74.2614	55
76.4791	49
80.0323	49
82.5522	51
89.011	67
94.4885	58
97.8746	47
100.9811	61
101.8833	38
103.5878	55
105.0341	52
108.0729	739
112.5165	39
113.0509	29
113.5545	45
114.8081	56
116.1887	70
117.0048	65
117.9603	52
119.0322	42
120.0604	39
121.4357	63
123.1811	43
124.3535	54
125.4712	75
126.0264	47
126.9613	38
127.5661	53
128.6246	47
129.2415	53
129.9348	43
130.6004	45
133.8955	999
136.002	36
137.2687	28
141.8527	53
143.3703	40
146.7323	26
150.7647	34
152.4374	51
163.7091	33
174.006	59
195.8113	33
229.5446	48
236.0927	28
262.0986	53
262.7509	32
281.9564	37
343.1619	26
404.8276	36
461.7254	29
485.2685	26
491.2021	28
580.8249	40
584.6678	28
624.4123	32
701.3525	30
815.4072	44
