Mass spectrum: ASCORBATE; LC-ESI-QTOF; MS2; CE: 10;  [M-H]-
Name: ASCORBATE
Class: NA
Formula: C6H8O6
Exact mass: 176.03209
SMILES: [H][C@@]1(OC(=O)C(O)=C1O)[C@@H](O)CO
InChI: InChI=1S/C6H8O6/c7-1-2(8)5-3(9)4(10)6(11)12-5/h2,5,7-10H,1H2/t2-,5+/m0/s1
Instrument: Agilent 6530Â Q-TOF LC/MS
Instrument type: LC-ESI-QTOF
Ms type: MS2
Ion mode: NEGATIVE
Ionization: ESI
Collision energy: 10
Column name: NA
Retention time: 0.200 min
Base peak: 175.02588
Precursor m/z: 175.02588
Precursor type: [M-H]-
Precursor intensity: 135
m/z	relative intensity
41.0107	185
43.0216	376
59.0253	383
71.0216	507
87.0258	510
115.0223	812
175.0411	999
