Mass spectrum: Polydatin; LC-ESI-QTOF; MS2; CE: 15.00;  [M-C6H10O5+H]+
Name: Polydatin
Class: NA
Formula: C20H22O8
Exact mass: 390.1315
SMILES: C1=CC(=CC=C1C=CC2=CC(=CC(=C2)OC3C(C(C(C(O3)CO)O)O)O)O)O
InChI: InChI=1S/C20H22O8/c21-10-16-17(24)18(25)19(26)20(28-16)27-15-8-12(7-14(23)9-15)2-1-11-3-5-13(22)6-4-11/h1-9,16-26H,10H2
Instrument: Bruker MicrOTOF-Q
Instrument type: LC-ESI-QTOF
Ms type: MS2
Ion mode: POSITIVE
Ionization: ESI
Collision energy: 15.00
Column name: Acquity CSHC18
Retention time: NA
Base peak: 229.0859
Precursor m/z: 229.0859
Precursor type: [M-C6H10O5+H]+
m/z	relative intensity
119.0496	29
120.0566	29
121.0293	31
123.0455	31
135.0441	33
136.0495	33
141.0685	34
145.0644	35
153.0688	40
155.0851	44
159.0795	44
165.0697	48
166.0742	55
169.0639	56
171.0442	57
173.0635	57
181.0655	69
183.0801	74
184.0832	82
187.0746	89
193.0643	99
194.07	128
201.0897	148
211.075	217
212.0788	366
214.0609	447
228.0775	482
229.0856	606
230.0885	999
