Mass spectrum: visnagin; LC-ESI-ITFT; MS2; CE: 0.3;  [M+H]+
Name: visnagin
Class: coumarins
Formula: C13H10O4
Exact mass: 230.0579
SMILES: CC1=CC(=O)C2=C(O1)C=C3C(=C2OC)C=CO3
InChI: InChI=1S/C13H10O4/c1-7-5-9(14)12-11(17-7)6-10-8(3-4-16-10)13(12)15-2/h3-6H,1-2H3
Instrument: LTQ-Orbitrap XL hybrid mass spectrometer (Thermo Scientific)
Instrument type: LC-ESI-ITFT
Ms type: MS2
Ion mode: POSITIVE
Ionization: ESI
Collision energy: 0.3
Column name: Acquity CSHC18
Retention time: 8.700 min
Base peak: 231.0652
Precursor m/z: 231.0652
Precursor type: [M+H]+
Precursor intensity: 16781240
m/z	relative intensity
63.638	1
66.1371	1
71.4634	1
71.7897	1
75.9024	1
81.0401	1
91.3798	1
92.7376	1
101.9239	1
125.9809	1
135.598	1
137.4512	1
162.6122	1
167.0359	6
197.6251	1
203.0705	47
214.6678	3
214.957	1
215.1262	2
215.3046	1
215.8377	1
215.8459	2
215.8661	1
215.8747	2
215.8936	3
215.9046	2
215.9138	2
215.9229	3
215.933	3
215.9422	3
215.9521	4
215.9613	4
215.9715	4
215.9804	6
215.9909	5
215.9995	7
216.0091	5
216.042	999
216.0767	6
216.0865	5
216.0956	6
216.1053	5
216.1149	4
216.1245	4
216.1343	3
216.1436	3
216.1534	3
216.1629	2
216.1732	2
216.1816	3
216.1923	2
216.2011	2
216.2118	1
216.2202	2
216.2506	1
216.2585	2
216.9647	1
217.4311	3
230.9873	1
230.9984	1
231.0154	1
231.0286	4
231.0655	412
231.1139	2
231.1352	2
