Mass spectrum: Fisetin; LC-ESI-QTOF; MS2; CE: 7-62eV;  [M-H]-
Name: Fisetin
Class: Phenolics
Formula: C15H10O6
Exact mass: 286.0477
SMILES: C1=CC(=C(C=C1C2=C(C(=O)C3=C(O2)C=C(C=C3)O)O)O)O
InChI: InChI=1S/C15H10O6/c16-8-2-3-9-12(6-8)21-15(14(20)13(9)19)7-1-4-10(17)11(18)5-7/h1-6,16-18,20H
Instrument: Bruker MicrOTOF-Q
Instrument type: LC-ESI-QTOF
Ms type: MS2
Ion mode: NEGATIVE
Ionization: ESI
Collision energy: 7-62eV
Column name: Acquity CSHC18
Retention time: 33.698 min
Base peak: 285.0436
Precursor m/z: 285.0436
Precursor type: [M-H]-
Precursor intensity: 30393.25
m/z	relative intensity
91.0131	55
93.0302	55
108.0222	55
109.0299	55
119.0109	57
121.033	62
122.033	67
135.0117	68
136.0122	68
137.0163	68
139.0433	68
141.0361	70
143.0507	71
146.0322	71
147.0073	73
148.0165	73
149.0291	76
153.0199	76
154.0219	76
155.0548	78
156.0556	83
157.0674	87
158.0347	91
159.041	91
161.0591	92
163.0049	94
167.0544	95
171.0458	95
182.0381	95
183.045	97
184.0504	102
185.0629	104
187.0397	105
195.0521	111
196.0499	116
199.0408	119
201.0548	158
210.0339	165
211.0509	165
212.0472	183
213.0551	193
223.0337	252
227.0393	263
228.0439	277
229.0507	283
239.0348	369
240.0409	548
241.0443	706
256.0364	860
257.0422	999
285.049	55
