Mass spectrum: Epoxybergamottin; LC-ESI-ITFT; MS2; CE: 45eV;  [M+H]+
Name: Epoxybergamottin
Class: coumarin
Formula: C21H22O5
Exact mass: 354.1467
SMILES: CC(=CCOC1=C2C=CC(=O)OC2=CC3=C1C=CO3)CCC4C(O4)(C)C
InChI: InChI=1S/C21H22O5/c1-13(4-6-18-21(2,3)26-18)8-10-24-20-14-5-7-19(22)25-17(14)12-16-15(20)9-11-23-16/h5,7-9,11-12,18H,4,6,10H2,1-3H3
Instrument: LTQ Orbitrap XL, Thermo Scientfic; Dionex Ultimate 300
Instrument type: LC-ESI-ITFT
Ms type: MS2
Ion mode: POSITIVE
Ionization: ESI
Collision energy: 45eV
Column name: Alltima C18
Retention time: 18.89 min
Base peak: 355.1525
Precursor m/z: 355.1525
Precursor type: [M+H]+
m/z	relative intensity
123.0451	32
132.9378	3
182.8814	2
202.9692	999
213.1928	7
241.0793	10
251.2819	4
265.1703	7
280.4405	2
281.1529	35
291.3224	2
322.0578	2
