Mass spectrum: D-Tartaric acid; LC-ESI-ITFT; MS2; CE: 60;  [M-H]-
Name: D-Tartaric acid
Class: Organic oxygen compounds; Organooxygen compounds; Carbohydrates and carbohydrate conjugates
Formula: C4H6O6
Exact mass: 150.01644
SMILES: O[C@@H]([C@H](O)C(O)=O)C(O)=O
InChI: InChI=1S/C4H6O6/c5-1(3(7)8)2(6)4(9)10/h1-2,5-6H,(H,7,8)(H,9,10)/t1-,2-/m0/s1
Instrument: Thermo Scientific Q-Exactive Focus
Instrument type: LC-ESI-ITFT
Ms type: MS2
Ion mode: NEGATIVE
Ionization: ESI
Collision energy: 60
Column name: Acquity CSHC18
Retention time: 2.034 min
Base peak: 149.00916
Precursor m/z: 149.00916
Precursor type: [M-H]-
m/z	relative intensity
54.3495	724
76.3283	731
92.5138	999
113.7114	869
115.4546	782
118.6558	771
119.0375	806
121.2971	743
129.5413	809
150.4302	716
