Mass spectrum: O-acyl sugar AS15; LC-ESI-QTOF; MS2; CE: 22.5eV; [M+Na]+
Name: O-acyl sugar AS15
Class: O-acyl sugar
Formula: C32H52O16
Exact mass: 692.3255
SMILES: CC(C)C(=O)O[C@H]1[C@H](O[C@H](COC(C)=O)[C@@H](OC(=O)C(C)CCC)[C@@H]1OC(=O)C(C)CCC)O[C@]1(CO)O[C@H](CO)[C@@H](OC(C)=O)[C@@H]1O
InChI: InChI=1S/C32H52O16/c1-9-11-17(5)29(39)44-23-22(14-41-19(7)35)43-31(48-32(15-34)27(37)24(42-20(8)36)21(13-33)47-32)26(46-28(38)16(3)4)25(23)45-30(40)18(6)12-10-2/h16-18,21-27,31,33-34,37H,9-15H2,1-8H3/t17?,18?,21-,22-,23-,24-,25+,26-,27+,31-,32+/m1/s1
Instrument: Microtof-q MS
Instrument type: LC-ESI-QTOF
Ms type: MS2
Ion mode: POSITIVE
Ionization: ESI
Collision energy: 22.5eV
Column name: Acquity CSH C18 column (particle size 1.7 μm, column length 2.1 × 50 mm) (Waters)
Retention time: NA
Base peak: 715.3165
Precursor m/z: 715.3165
Precursor type: [M+Na]+
m/z	relative intensity
97.0289	22
205.0733	51
395.1661	67
511.2514	348
599.2382	57
627.2641	25
715.3165	999
