Mass spectrum: Tomatidine; LC-ESI-QTOF; MS2; CE: 23.73;  [M+H]+
Name: Tomatidine
Class: NA
Formula: C27H45NO2
Exact mass: 415.3450
SMILES: CC1CCC2(C(C3C(O2)CC4C3(CCC5C4CCC6C5(CCC(C6)O)C)C)C)NC1
InChI: InChI=1S/C27H45NO2/c1-16-7-12-27(28-15-16)17(2)24-23(30-27)14-22-20-6-5-18-13-19(29)8-10-25(18,3)21(20)9-11-26(22,24)4/h16-24,28-29H,5-15H2,1-4H3
Instrument: Bruker MicrOTOF-Q
Instrument type: LC-ESI-QTOF
Ms type: MS2
Ion mode: POSITIVE
Ionization: ESI
Collision energy: 23.73
Column name: Acquity CSHC18
Retention time: NA
Base peak: 416.3523
Precursor m/z: 416.3523
Precursor type: [M+H]+
m/z	relative intensity
161.132	21
255.2105	29
256.2141	34
273.222	40
274.2243	44
398.3433	109
399.3422	116
416.354	166
417.3567	249
418.36	999
