Mass spectrum: L-Histidinol; LC-ESI-ITFT; MS2; CE: 100;  [M+H]+
Name: L-Histidinol
Class: Organic nitrogen compounds; Organonitrogen compounds; Amines
Formula: C6H11N3O
Exact mass: 141.09021
SMILES: N[C@H](CO)CC1=CN=CN1
InChI: InChI=1S/C6H11N3O/c7-5(3-10)1-6-2-8-4-9-6/h2,4-5,10H,1,3,7H2,(H,8,9)/t5-/m0/s1
Instrument: Thermo Scientific Q-Exactive Focus
Instrument type: LC-ESI-ITFT
Ms type: MS2
Ion mode: POSITIVE
Ionization: ESI
Collision energy: 100
Column name: Acquity CSHC18
Retention time: 2.571 min
Base peak: 142.09749
Precursor m/z: 142.09749
Precursor type: [M+H]+
m/z	relative intensity
53.0027	458
54.0344	999
56.9759	267
81.0197	271
81.0451	294
108.1586	265
120.0303	273
121.11	279
126.4006	279
141.8367	284
