Mass spectrum: N-Heptanoyl-L-homoserine lactone; LC-ESI-ITFT; MS2; CE: 100;  [M+H]+
Name: N-Heptanoyl-L-homoserine lactone
Class: NA
Formula: C11H19NO3
Exact mass: 213.13649
SMILES: CCCCCCC(=O)N[C@H]1CCOC1=O
InChI: InChI=1S/C11H19NO3/c1-2-3-4-5-6-10(13)12-9-7-8-15-11(9)14/h9H,2-8H2,1H3,(H,12,13)/t9-/m0/s1
Instrument: Thermo Scientific Q-Exactive Focus
Instrument type: LC-ESI-ITFT
Ms type: MS2
Ion mode: POSITIVE
Ionization: ESI
Collision energy: 100
Column name: Acquity CSHC18
Retention time: 2.308 min
Base peak: 214.14377
Precursor m/z: 214.14377
Precursor type: [M+H]+
m/z	relative intensity
53.0028	999
63.1305	224
100.3761	233
101.7043	201
110.4801	197
115.2716	195
158.2237	199
164.2694	196
188.7502	210
204.0057	228
