Mass spectrum: Citrulline; LC-ESI-ITFT; MS2; CE: 30;  [M-H]-
Name: Citrulline
Class: Organic acids and derivatives; Carboxylic acids and derivatives; Amino acids, peptides, and analogues
Formula: C6H13N3O3
Exact mass: 175.09569
SMILES: N[C@@H](CCCNC(N)=O)C(O)=O
InChI: InChI=1S/C6H13N3O3/c7-4(5(10)11)2-1-3-9-6(8)12/h4H,1-3,7H2,(H,10,11)(H3,8,9,12)/t4-/m0/s1
Instrument: Thermo Scientific Q-Exactive Focus
Instrument type: LC-ESI-ITFT
Ms type: MS2
Ion mode: NEGATIVE
Ionization: ESI
Collision energy: 30
Column name: Acquity CSHC18
Retention time: 0.931 min
Base peak: 174.08841
Precursor m/z: 174.08841
Precursor type: [M-H]-
m/z	relative intensity
61.9872	45
83.0603	53
90.9701	101
91.7808	25
114.8402	25
118.9651	231
131.0815	999
146.1109	23
149.1824	23
162.2477	24
