Mass spectrum: 2-oxo-8(2-methyl-2,3-epoxybutanoyl)-guaia-1(10),3,11,(13)-trien-6,12-olide; LC-ESI-ITFT; MS2; CE: 50eV;  [M+H]+
Name: 2-oxo-8(2-methyl-2,3-epoxybutanoyl)-guaia-1(10),3,11,(13)-trien-6,12-olide
Class: Sesquiterpenelactone; Guaianolidei
Formula: C20H22O6
Exact mass: 358.1416
SMILES: CC4OC4(C)C(=O)O[C@@H]2CC(C)=C3C(=O)C=C(C)[C@@H]3[C@H]1OC(=O)C(=C)[C@@H]12
InChI: InChI=1S/C20H22O6/c1-8-6-12(21)14-9(2)7-13(24-19(23)20(5)11(4)26-20)16-10(3)18(22)25-17(16)15(8)14/h6,11,13,15-17H,3,7H2,1-2,4-5H3/t11?,13-,15+,16-,17-,20?/m1/s1
Instrument: Q Exactive Plus, ThermoFisher Scientific
Instrument type: LC-ESI-ITFT
Ms type: MS2
Ion mode: POSITIVE
Ionization: ESI
Collision energy: 50eV
Column name: Acquity CSHC18
Retention time: 6.627 min
Base peak: 359.1483
Precursor m/z: 359.1483
Precursor type: [M+H]+
Precursor intensity: 7832399000
m/z	relative intensity
68.4301	9
68.4339	30
69.0343	19
197.0962	25
215.1081	16
225.0894	17
227.3061	5
243.1009	999
244.1034	7
327.6293	4
359.152	42
