Mass spectrum: GLUCOSAMINE 6-SULFATE; LC-ESI-QTOF; MS2; CE: 40;  [M+H]+
Name: GLUCOSAMINE 6-SULFATE
Class: NA
Formula: C6H13NO8S
Exact mass: 259.03619
SMILES: N[C@H]1[C@H](O)O[C@H](COS(O)(=O)=O)[C@@H](O)[C@@H]1O
InChI: InChI=1S/C6H13NO8S/c7-3-5(9)4(8)2(15-6(3)10)1-14-16(11,12)13/h2-6,8-10H,1,7H2,(H,11,12,13)/t2-,3-,4-,5-,6-/m1/s1
Instrument: Agilent 6530Â Q-TOF LC/MS
Instrument type: LC-ESI-QTOF
Ms type: MS2
Ion mode: POSITIVE
Ionization: ESI
Collision energy: 40
Column name: NA
Retention time: 0.200 min
Base peak: 260.04226
Precursor m/z: 260.04226
Precursor type: [M+H]+
Precursor intensity: 108.5
m/z	relative intensity
41.0345	187
41.0382	256
41.0419	246
41.0455	194
41.0492	154
42.028	271
42.0317	380
42.0355	337
42.0392	279
42.0429	213
42.0466	171
44.0393	155
44.0431	612
44.0469	958
44.0507	999
44.0545	853
44.0583	663
44.0621	477
44.0659	379
44.0697	283
44.0735	236
44.0773	203
56.0379	154
56.0422	273
56.0465	305
56.0508	250
56.0551	193
56.0594	148
60.0366	219
60.0411	322
60.0455	312
60.05	260
60.0544	209
60.0588	162
72.0304	158
72.0352	498
72.0401	775
72.045	798
72.0498	663
72.0547	516
72.0596	374
72.0644	272
72.0693	204
72.0742	164
81.0259	152
81.031	184
81.0362	162
84.0351	178
84.0404	243
84.0456	219
84.0509	151
