Mass spectrum: 5-HYDROXYLYSINE; LC-ESI-QFT; MS2; CE: 30eV;  [M+H]+
Name: 5-HYDROXYLYSINE
Class: NA
Formula: C6H14N2O3
Exact mass: 162.10044
SMILES: NC[C@H](O)CC[C@H](N)C(O)=O
InChI: InChI=1S/C6H14N2O3/c7-3-4(9)1-2-5(8)6(10)11/h4-5,9H,1-3,7-8H2,(H,10,11)/t4-,5+/m1/s1
Instrument: Q-Exactive Orbitrap, Thermo Scientfic; Ultimate 3000 HPLC, Thermo Scientfic
Instrument type: LC-ESI-QFT
Ms type: MS2
Ion mode: POSITIVE
Ionization: ESI
Collision energy: 30eV
Column name: Acquity CSHC18
Retention time: 0.547 min
Base peak: 163.1077
Precursor m/z: 163.1077
Precursor type: [M+H]+
Precursor intensity: 121
m/z	relative intensity
50.849	2
52.562	2
55.0551	87
55.658	3
55.9084	2
56.0504	97
57.4385	2
59.8048	2
65.7324	2
66.4571	2
67.0092	2
67.0551	4
70.066	10
72.3405	3
74.0245	192
74.1695	2
77.4511	2
78.0387	2
82.066	999
83.0501	3
83.0694	23
84.0816	160
85.8152	2
89.0605	4
99.0924	69
100.0764	742
101.0604	15
101.0798	22
112.88	2
113.0221	3
116.0712	3
116.9725	3
117.1029	23
117.9804	13
118.968	15
118.9796	5
118.9836	4
119.9758	52
127.0872	45
128.9577	2
129.0745	82
134.9742	4
145.0977	488
146.0817	334
146.1011	13
147.0852	11
152.7373	2
163.1082	367
163.9653	3
164.1117	6
