Mass spectrum: PHENYLALANINE; LC-ESI-QTOF; MS2; CE: 20;  [M-H]-
Name: PHENYLALANINE
Class: NA
Formula: C9H11NO2
Exact mass: 165.07898
SMILES: N[C@@H](CC1=CC=CC=C1)C(O)=O
InChI: InChI=1S/C9H11NO2/c10-8(9(11)12)6-7-4-2-1-3-5-7/h1-5,8H,6,10H2,(H,11,12)/t8-/m0/s1
Instrument: Agilent 6530Â Q-TOF LC/MS
Instrument type: LC-ESI-QTOF
Ms type: MS2
Ion mode: NEGATIVE
Ionization: ESI
Collision energy: 20
Column name: NA
Retention time: 0.200 min
Base peak: 164.07553
Precursor m/z: 164.07553
Precursor type: [M-H]-
Precursor intensity: 188
m/z	relative intensity
42.0029	115
45	149
72.0234	174
77.0454	295
103.0745	481
147.0572	582
164.0703	999
