Mass spectrum: Oleamide; LC-ESI-ITFT; MS2; CE: 20;  [M+H]+
Name: Oleamide
Class: Lipids and lipid-like molecules; Fatty Acyls; Fatty amides
Formula: C18H35NO
Exact mass: 281.27186
SMILES: CCCCCCCC\C=C/CCCCCCCC(N)=O
InChI: InChI=1S/C18H35NO/c1-2-3-4-5-6-7-8-9-10-11-12-13-14-15-16-17-18(19)20/h9-10H,2-8,11-17H2,1H3,(H2,19,20)/b10-9-
Instrument: Thermo Scientific Q-Exactive Focus
Instrument type: LC-ESI-ITFT
Ms type: MS2
Ion mode: POSITIVE
Ionization: ESI
Collision energy: 20
Column name: Acquity CSHC18
Retention time: 0.631 min
Base peak: 282.27914
Precursor m/z: 282.27914
Precursor type: [M+H]+
m/z	relative intensity
57.0704	577
69.0703	976
71.0859	418
81.0702	456
83.0859	999
95.0858	448
97.1014	866
111.1169	317
121.1012	326
135.1167	370
