Mass spectrum: (S)- Norprotosinomenine HCl; ESI-QTOF; MS2; CE: -10, -35, -60;  [M-H]-
Name: (S)- Norprotosinomenine HCl
Class: Benzylisoquinoline alkaloid
Formula: C18H21NO4
Exact mass: 315.1471
SMILES: COC1=C(C=C(C=C1)CC2C3=CC(=C(C=C3CCN2)O)OC)O
InChI: InChI=1S/C18H21NO4/c1-22-17-4-3-11(8-15(17)20)7-14-13-10-18(23-2)16(21)9-12(13)5-6-19-14/h3-4,8-10,14,19-21H,5-7H2,1-2H3
Instrument: AB Sciex TripleToF 5500
Instrument type: ESI-QTOF
Ms type: MS2
Ion mode: NEGATIVE
Ionization: ESI
Collision energy: -10, -35, -60
Column name: Acquity CSHC18
Retention time: 4.525 min
Base peak: 314.1411
Precursor m/z: 314.1411
Precursor type: [M-H]-
Precursor intensity: 1413.19
m/z	relative intensity
161.0437	999
176.0755	999
314.1376	999
