Mass spectrum: 13,14-dihydro-15-keto Prostaglandin D1; ESI-TOF; MS2; CE: 6.0000000;  [M+H]+
Name: 13,14-dihydro-15-keto Prostaglandin D1
Class: NA
Formula: C20H34O5
Exact mass: 354.24062
SMILES: CCCCCC(=O)CC[C@H]1C(=O)CC(O)C1CCCCCCC(=O)O
InChI: InChI=1S/C20H34O5/c1-2-3-6-9-15(21)12-13-17-16(18(22)14-19(17)23)10-7-4-5-8-11-20(24)25/h16-18,22H,2-14H2,1H3,(H,24,25)/t16?,17-,18?/m1/s1
Instrument: waters xevo g2 TOF
Instrument type: ESI-TOF
Ms type: MS2
Ion mode: POSITIVE
Ionization: ESI
Collision energy: 6.0000000
Column name: Acquity CSHC18
Retention time: 3.711 min
Base peak: 355.24862
Precursor m/z: 355.24862
Precursor type: [M+H]+
m/z	relative intensity
179.0917	15
206.1072	11
206.6058	3
213.1134	15
237.1476	2
249.1832	2
277.1943	1
307.2237	3
319.227	605
337.2376	999
338.2409	224
339.2432	27
355.248	693
356.2524	159
