Mass spectrum: N-Oleoyldopamine; LC-ESI-ITFT; MS2; CE: 30;  [M+H]+
Name: N-Oleoyldopamine
Class: NA
Formula: C26H43NO3
Exact mass: 417.32429
SMILES: CCCCCCCC/C=C\CCCCCCCC(=O)NCCC1=CC(=C(C=C1)O)O
InChI: InChI=1S/C26H43NO3/c1-2-3-4-5-6-7-8-9-10-11-12-13-14-15-16-17-26(30)27-21-20-23-18-19-24(28)25(29)22-23/h9-10,18-19,22,28-29H,2-8,11-17,20-21H2,1H3,(H,27,30)/b10-9-
Instrument: Thermo Scientific Q-Exactive Focus
Instrument type: LC-ESI-ITFT
Ms type: MS2
Ion mode: POSITIVE
Ionization: ESI
Collision energy: 30
Column name: Acquity CSHC18
Retention time: 0.915 min
Base peak: 418.33157
Precursor m/z: 418.33157
Precursor type: [M+H]+
m/z	relative intensity
67.0547	14
69.0703	26
81.0702	19
83.0858	22
91.0545	17
95.0858	20
119.0492	14
121.1012	16
137.0597	999
154.0861	137
