Mass spectrum: 2-Naphthol; LC-ESI-QTOF; MS2; CE: 50eV;  [M+H]+
Name: 2-Naphthol
Class: Naphthol
Formula: C10H8O
Exact mass: 144.0575
SMILES: C1=CC=C2C=C(C=CC2=C1)O
InChI: InChI=1S/C10H8O/c11-10-6-5-8-3-1-2-4-9(8)7-10/h1-7,11H
Instrument: TIMS-TOF Pro, Bruker Daltonik; Elute UHPLC System, Bruker Daltonik
Instrument type: LC-ESI-QTOF
Ms type: MS2
Ion mode: POSITIVE
Ionization: ESI
Collision energy: 50eV
Column name: Acquity CSHC18
Retention time: 7.862 min
Base peak: 145.0649
Precursor m/z: 145.0649
Precursor type: [M+H]+
Precursor intensity: 3418.44
m/z	relative intensity
37.8826	19
65.0301	301
87.0075	254
105.038	360
117.0703	881
126.0461	288
127.0546	999
144.0443	265
