Mass spectrum: ADP ribose; LC-ESI-QTOF; MS2; CE: 100;  [M-H]-
Name: ADP ribose
Class: Purine nucleotide sugars
Formula: C15H23N5O14P2
Exact mass: 559.0717
SMILES: NC1=C2N=CN(C3OC(COP(O)(=O)OP(O)(=O)OCC4OC(O)C(O)C4O)C(O)C3O)C2=NC=N1
InChI: InChI=1S/C15H23N5O14P2/c16-12-7-13(18-3-17-12)20(4-19-7)14-10(23)8(21)5(32-14)1-30-35(26,27)34-36(28,29)31-2-6-9(22)11(24)15(25)33-6/h3-6,8-11,14-15,21-25H,1-2H2,(H,26,27)(H,28,29)(H2,16,17,18)
Instrument: impact II
Instrument type: LC-ESI-QTOF
Ms type: MS2
Ion mode: NEGATIVE
Ionization: ESI
Collision energy: 100
Column name: Acquity CSHC18
Retention time: 1.729 min
Base peak: 558.0538
Precursor m/z: 558.0538
Precursor type: [M-H]-
m/z	relative intensity
78.9596	999
134.0468	218
