Mass spectrum: Tiliroside; LC-ESI-QTOF; MS2; CE: 50eV;  [M-H]-
Name: Tiliroside
Class: Flavonol
Formula: C30H26O13
Exact mass: 594.1373
SMILES: C1=CC(=CC=C1C=CC(=O)OCC2C(C(C(C(O2)OC3=C(OC4=CC(=CC(=C4C3=O)O)O)C5=CC=C(C=C5)O)O)O)O)O
InChI: InChI=1S/C30H26O13/c31-16-6-1-14(2-7-16)3-10-22(35)40-13-21-24(36)26(38)27(39)30(42-21)43-29-25(37)23-19(34)11-18(33)12-20(23)41-28(29)15-4-8-17(32)9-5-15/h1-12,21,24,26-27,30-34,36,38-39H,13H2
Instrument: TIMS-TOF Pro, Bruker Daltonik; Elute UHPLC System, Bruker Daltonik
Instrument type: LC-ESI-QTOF
Ms type: MS2
Ion mode: NEGATIVE
Ionization: ESI
Collision energy: 50eV
Column name: Acquity CSHC18
Retention time: 6.550 min
Base peak: 593.1187
Precursor m/z: 593.1187
Precursor type: [M-H]-
Precursor intensity: 65553.89
m/z	relative intensity
93.0322	1
101.0229	1
119.0474	3
121.0306	1
136.771	1
145.0276	49
145.5902	1
146.03	2
147.5831	1
150.9988	1
152.008	2
154.0247	1
157.0155	1
163.0368	10
164.0087	2
187.0373	6
189.0589	1
212.0462	2
219.0042	1
221.3274	1
224.418	1
227.0309	8
228.0322	2
231.7328	1
255.0253	6
256.036	1
257.0386	2
269.6832	1
277.0765	4
280.4936	2
282.7745	1
283.6687	1
284.0273	25
284.3357	1
284.5271	3
284.6814	2
285.0353	71
286.0398	3
286.7763	1
287.0326	1
287.5511	2
290.0833	1
292.1925	1
294.0984	1
295.7909	2
296.3633	2
297.2543	3
299.3021	1
300.9574	2
302.6831	1
303.276	1
305.7082	1
307.0771	4
307.735	2
309.1694	1
310.4072	1
318.3382	2
320.1581	1
321.7343	2
323.6916	2
325.467	1
327.4041	1
329.1124	1
339.9322	1
345.7126	1
401.0805	1
447.0803	4
448.0843	1
453.7058	1
515.3492	1
533.3142	1
567.5987	1
592.1092	1
592.5217	2
592.6177	1
592.8096	2
592.9555	2
593.1187	999
593.4572	2
