Mass spectrum: Sinapaldehyde; LC-ESI-QTOF; MS2; CE: 50eV;  [M+H]+
Name: Sinapaldehyde
Class: Phenylpropanoid
Formula: C11H12O4
Exact mass: 208.0736
SMILES: COC1=CC(=CC(=C1O)OC)C=CC=O
InChI: InChI=1S/C11H12O4/c1-14-9-6-8(4-3-5-12)7-10(15-2)11(9)13/h3-7,13H,1-2H3
Instrument: TIMS-TOF Pro, Bruker Daltonik; Elute UHPLC System, Bruker Daltonik
Instrument type: LC-ESI-QTOF
Ms type: MS2
Ion mode: POSITIVE
Ionization: ESI
Collision energy: 50eV
Column name: Acquity CSHC18
Retention time: 5.884 min
Base peak: 209.0797
Precursor m/z: 209.0797
Precursor type: [M+H]+
Precursor intensity: 111733.1
m/z	relative intensity
20.7541	42
35.7125	12
37.9901	34
49.0988	24
51.0228	53
54.0469	24
56.0254	42
65.0391	53
68.0258	34
77.0383	175
78.0456	190
81.0326	18
89.0378	256
90.0467	81
91.0537	559
101.0296	32
102.0465	64
103.0539	184
105.0331	59
107.0492	113
108.0199	56
117.0325	203
119.0494	145
121.0642	270
122.0683	65
125.0577	29
129.8634	25
130.0407	86
133.0651	45
136.0503	37
145.0286	304
146.0373	108
147.0437	208
148.0516	158
149.0592	999
153.0547	298
159.0419	99
161.0611	56
163.0749	155
164.0469	47
165.0544	60
166.0629	111
173.0581	53
176.0451	93
177.0549	428
178.0549	82
181.0484	48
182.0895	23
191.0677	295
192.0888	31
194.0575	113
209.082	156
