Mass spectrum: 6?-hydroxy-5?-cholestanol; ESI-TOF; MS2; CE: 6.0000000;  [M+H]+
Name: 6?-hydroxy-5?-cholestanol
Class: NA
Formula: C27H48O2
Exact mass: 404.36543
SMILES: [H]OC1([H])(C([H])([H])C([H])([H])C3(C([H])([H])[H])(C([H])(C1([H])([H]))C([H])(O[H])C([H])([H])C2([H])(C4([H])(C([H])([H])C([H])([H])C([H])(C([H])(C([H])([H])[H])C([H])([H])C([H])([H])C([H])([H])C([H])(C([H])([H])[H])C([H])([H])[H])C4(C([H])([H])[H])(C([H])([H])C([H])([H])C23([H]))))))
InChI: InChI=1S/C27H48O2/c1-17(2)7-6-8-18(3)21-9-10-22-20-16-25(29)24-15-19(28)11-13-27(24,5)23(20)12-14-26(21,22)4/h17-25,28-29H,6-16H2,1-5H3
Instrument: waters xevo g2 TOF
Instrument type: ESI-TOF
Ms type: MS2
Ion mode: POSITIVE
Ionization: ESI
Collision energy: 6.0000000
Column name: Acquity CSHC18
Retention time: 9.627 min
Base peak: 405.37343
Precursor m/z: 405.37343
Precursor type: [M+H]+
m/z	relative intensity
125.9868	13
161.1331	4
189.165	11
203.1802	14
229.1955	7
243.212	19
259.2434	9
271.2528	26
287.2731	21
295.1956	20
367.3375	8
369.3521	999
370.2881	51
371.3586	27
385.2468	11
387.3624	86
388.3661	42
403.3563	9
404.3908	8
