Mass spectrum: 2-Aminoanthracene; LC-ESI-ITFT; MS2; CE: 100;  [M+H]+
Name: 2-Aminoanthracene
Class: NA
Formula: C14H11N
Exact mass: 193.08915
SMILES: C1=CC=C2C=C3C=C(C=CC3=CC2=C1)N
InChI: InChI=1S/C14H11N/c15-14-6-5-12-7-10-3-1-2-4-11(10)8-13(12)9-14/h1-9H,15H2
Instrument: Thermo Scientific Q-Exactive Focus
Instrument type: LC-ESI-ITFT
Ms type: MS2
Ion mode: POSITIVE
Ionization: ESI
Collision energy: 100
Column name: Acquity CSHC18
Retention time: 2.193 min
Base peak: 194.09644
Precursor m/z: 194.09644
Precursor type: [M+H]+
m/z	relative intensity
50.0157	368
51.0236	542
74.0156	999
75.0234	429
76.0312	192
86.0155	200
98.0155	889
99.0232	183
110.0154	187
122.0153	207
