Mass spectrum: Glutathione; LC-ESI-ITFT; MS2; CE: 100;  [M+H]+
Name: Glutathione
Class: Organic acids and derivatives; Carboxylic acids and derivatives; Amino acids, peptides, and analogues
Formula: C10H17N3O6S
Exact mass: 307.08381
SMILES: N[C@@H](CCC(=O)N[C@@H](CS)C(=O)NCC(O)=O)C(O)=O
InChI: InChI=1S/C10H17N3O6S/c11-5(10(18)19)1-2-7(14)13-6(4-20)9(17)12-3-8(15)16/h5-6,20H,1-4,11H2,(H,12,17)(H,13,14)(H,15,16)(H,18,19)/t5-,6-/m0/s1
Instrument: Thermo Scientific Q-Exactive Focus
Instrument type: LC-ESI-ITFT
Ms type: MS2
Ion mode: POSITIVE
Ionization: ESI
Collision energy: 100
Column name: Acquity CSHC18
Retention time: 2.570 min
Base peak: 308.09109
Precursor m/z: 308.09109
Precursor type: [M+H]+
m/z	relative intensity
53.0028	9
55.0184	19
56.0501	215
57.9878	155
58.9956	999
68.05	9
76.022	38
80.05	25
84.0448	47
92.5226	13
