Mass spectrum: TYRAMINE; LC-ESI-QFT; MS2; CE: 30eV;  [M+H]+
Name: TYRAMINE
Class: NA
Formula: C8H11NO
Exact mass: 137.08406
SMILES: NCCC1=CC=C(O)C=C1
InChI: InChI=1S/C8H11NO/c9-6-5-7-1-3-8(10)4-2-7/h1-4,10H,5-6,9H2
Instrument: Q-Exactive Orbitrap, Thermo Scientfic; Ultimate 3000 HPLC, Thermo Scientfic
Instrument type: LC-ESI-QFT
Ms type: MS2
Ion mode: POSITIVE
Ionization: ESI
Collision energy: 30eV
Column name: Acquity CSHC18
Retention time: 0.899 min
Base peak: 138.0913
Precursor m/z: 138.0913
Precursor type: [M+H]+
Precursor intensity: 200
m/z	relative intensity
51.0236	12
55.0185	10
55.5692	8
60.2873	7
61.9617	7
65.0391	12
67.1986	9
67.4647	7
70.6838	9
70.9587	8
73.3128	9
77.039	72
82.3797	9
83.2121	8
85.2752	11
91.0548	260
93.0704	805
94.0738	31
95.0496	166
97.2968	8
103.0547	408
103.0582	14
104.0583	7
105.0452	91
119.831	9
122.0685	999
136.3469	8
138.0915	123
146.0935	8
