Mass spectrum: cis-Aconitic acid; LC-ESI-ITFT; MS2; CE: 10;  [M-H]-
Name: cis-Aconitic acid
Class: Organic acids and derivatives; Carboxylic acids and derivatives; Tricarboxylic acids and derivatives
Formula: C6H6O6
Exact mass: 174.01644
SMILES: OC(=O)C\C(=C\C(O)=O)C(O)=O
InChI: InChI=1S/C6H6O6/c7-4(8)1-3(6(11)12)2-5(9)10/h1H,2H2,(H,7,8)(H,9,10)(H,11,12)/b3-1-
Instrument: Thermo Scientific Q-Exactive Focus
Instrument type: LC-ESI-ITFT
Ms type: MS2
Ion mode: NEGATIVE
Ionization: ESI
Collision energy: 10
Column name: Acquity CSHC18
Retention time: 0.360 min
Base peak: 173.00916
Precursor m/z: 173.00916
Precursor type: [M-H]-
m/z	relative intensity
66.1428	2
75.8621	2
80.8201	2
85.0283	999
111.0076	90
129.0182	267
162.9582	2
173.0082	23
176.4645	2
183.9246	2
