Mass spectrum: chlorogenic acid; LC-ESI-QFT; MS2; CE: NCE_15_30_50;  [M-H]-
Name: chlorogenic acid
Class: NA
Formula: C16H18O9
Exact mass: 354.0951
SMILES: C1C(C(C(CC1(C(=O)O)O)OC(=O)C=CC2=CC(=C(C=C2)O)O)O)O
InChI: InChI=1S/C16H18O9/c17-9-3-1-8(5-10(9)18)2-4-13(20)25-12-7-16(24,15(22)23)6-11(19)14(12)21/h1-5,11-12,14,17-19,21,24H,6-7H2,(H,22,23)
Instrument: Thermo_Qexactive_Plus
Instrument type: LC-ESI-QFT
Ms type: MS2
Ion mode: NEGATIVE
Ionization: ESI
Collision energy: NCE_15_30_50
Column name: Acquity CSHC18
Retention time: 3.184 min
Base peak: 353.0879
Precursor m/z: 353.0879
Precursor type: [M-H]-
Precursor intensity: 214166400
m/z	relative intensity
55.3373	53
61.4202	55
64.6936	56
69.5278	58
86.1859	60
88.7429	61
90.4865	61
95.9817	61
97.1355	62
170.2705	64
175.6043	64
176.5795	66
179.0341	68
190.3566	75
191.0548	75
192.0594	87
196.9921	113
234.9917	141
248.7164	271
353.0873	999
