Mass spectrum: Benzoic acid; LC-ESI-QTOF; MS2; CE: 15.00;  [2M-2O+H]+
Name: Benzoic acid
Class: NA
Formula: C7H6O2
Exact mass: 122.0368
SMILES: C1=CC=C(C=C1)C(=O)O
InChI: InChI=1S/C7H6O2/c8-7(9)6-4-2-1-3-5-6/h1-5H,(H,8,9)
Instrument: Bruker MicrOTOF-Q
Instrument type: LC-ESI-QTOF
Ms type: MS2
Ion mode: POSITIVE
Ionization: ESI
Collision energy: 15.00
Column name: Acquity CSHC18
Retention time: NA
Base peak: 213.0910
Precursor m/z: 213.0910
Precursor type: [2M-2O+H]+
m/z	relative intensity
149.0222	169
167.0226	65
183.0181	185
184.0244	63
193.0078	999
211.0193	452
212.0187	89
234.0404	61
