Mass spectrum: N-ACETYLSERINE; LC-ESI-QTOF; MS2; CE: 20;  [M+H]+
Name: N-ACETYLSERINE
Class: NA
Formula: C5H9NO4
Exact mass: 147.05316
SMILES: CC(=O)N[C@@H](CO)C(O)=O
InChI: InChI=1S/C5H9NO4/c1-3(8)6-4(2-7)5(9)10/h4,7H,2H2,1H3,(H,6,8)(H,9,10)/t4-/m0/s1
Instrument: Agilent 6530Â Q-TOF LC/MS
Instrument type: LC-ESI-QTOF
Ms type: MS2
Ion mode: POSITIVE
Ionization: ESI
Collision energy: 20
Column name: NA
Retention time: 0.200 min
Base peak: 148.06151
Precursor m/z: 148.06151
Precursor type: [M+H]+
Precursor intensity: 24.5
m/z	relative intensity
42.0309	326
42.0346	383
42.0383	333
42.0421	253
43.0138	235
43.0175	249
60.0399	615
60.0444	970
60.0488	999
60.0532	864
60.0577	678
60.0621	542
60.0666	432
60.071	345
60.0754	268
106.0488	237
106.0547	235
120.0512	253
120.0574	231
