Mass spectrum: N-(3-Indolylacetyl)-DL-aspartic acid; LC-ESI-ITFT; MS2; CE: 0.3;  [M-H]-
Name: N-(3-Indolylacetyl)-DL-aspartic acid
Class: NA
Formula: C14H14N2O5
Exact mass: 290.0903
SMILES: C1=CC=C2C(=C1)C(=CN2)CC(=O)NC(CC(=O)O)C(=O)O
InChI: InChI=1S/C14H14N2O5/c17-12(16-11(14(20)21)6-13(18)19)5-8-7-15-10-4-2-1-3-9(8)10/h1-4,7,11,15H,5-6H2,(H,16,17)(H,18,19)(H,20,21)
Instrument: LTQ-Orbitrap XL hybrid mass spectrometer (Thermo Scientific)
Instrument type: LC-ESI-ITFT
Ms type: MS2
Ion mode: NEGATIVE
Ionization: ESI
Collision energy: 0.3
Column name: Acquity CSHC18
Retention time: 4.990 min
Base peak: 289.0829
Precursor m/z: 289.0829
Precursor type: [M-H]-
Precursor intensity: 4845157
m/z	relative intensity
65.688	5
66.5426	5
67.0731	5
67.2972	7
71.0144	5
71.793	5
79.311	5
81.0535	9
88.041	27
88.9839	4
101.8048	5
108.5868	4
114.0203	31
115.0042	71
130.0668	81
131.3733	5
132.0307	859
132.9184	4
146.7943	4
156.0459	30
167.1258	24
173.0723	205
174.0563	999
174.9565	34
175.7271	5
197.7485	9
213.9086	3
218.9333	5
227.0835	15
244.946	8
245.0932	248
271.0724	146
287.1739	14
