Mass spectrum: Naringin; LC-ESI-QTOF; MS2; CE: 7-62eV;  [M-H]-
Name: Naringin
Class: Phenolics
Formula: C27H32O14
Exact mass: 580.1792
SMILES: CC1C(C(C(C(O1)OC2C(C(C(OC2OC3=CC(=C4C(=O)CC(OC4=C3)C5=CC=C(C=C5)O)O)CO)O)O)O)O)O
InChI: InChI=1S/C27H32O14/c1-10-20(32)22(34)24(36)26(37-10)41-25-23(35)21(33)18(9-28)40-27(25)38-13-6-14(30)19-15(31)8-16(39-17(19)7-13)11-2-4-12(29)5-3-11/h2-7,10,16,18,20-30,32-36H,8-9H2,1H3
Instrument: Bruker MicrOTOF-Q
Instrument type: LC-ESI-QTOF
Ms type: MS2
Ion mode: NEGATIVE
Ionization: ESI
Collision energy: 7-62eV
Column name: Acquity CSHC18
Retention time: 33.233 min
Base peak: 579.1706
Precursor m/z: 579.1706
Precursor type: [M-H]-
Precursor intensity: 29879.19
m/z	relative intensity
107.0136	14
108.0199	15
117.0309	17
119.0535	17
120.0557	17
125.0231	17
145.0311	18
151.0113	18
152.0107	18
153.0094	18
161.0603	19
164.0118	20
165.0206	21
169.0165	22
175.0099	22
177.0253	24
178.0225	26
185.064	27
187.0409	28
193.0124	34
196.0022	34
205.0143	34
217.0183	35
227.0737	37
228.0736	38
229.0516	39
235.0272	41
253.047	44
269.0467	50
270.0568	53
271.0844	53
272.0722	62
273.0722	62
295.0516	63
313.0713	70
314.0765	71
339.0758	84
373.0923	104
417.1117	122
433.124	206
441.1	254
459.1371	281
460.123	615
461.1235	971
579.2317	999
