Mass spectrum: Salicyluric acid; ESI-TOF; MS2; CE: 0.6458333;  [M+H]+
Name: Salicyluric acid
Class: NA
Formula: C9H9NO4
Exact mass: 195.05316
SMILES: OC(=O)CNC(=O)C1=CC=CC=C1O
InChI: InChI=1S/C9H9NO4/c11-7-4-2-1-3-6(7)9(14)10-5-8(12)13/h1-4,11H,5H2,(H,10,14)(H,12,13)
Instrument: waters xevo g2 TOF
Instrument type: ESI-TOF
Ms type: MS2
Ion mode: POSITIVE
Ionization: ESI
Collision energy: 0.6458333
Column name: Acquity CSHC18
Retention time: 2.163 min
Base peak: 196.06116
Precursor m/z: 196.06116
Precursor type: [M+H]+
m/z	relative intensity
94.0368	36
95.9732	6
96.9617	1
100.9907	1
113.9868	54
121.1393	999
122.0327	246
123.0126	28
124.9539	1
127.037	44
127.9798	1
143.0249	1
144.0137	1
147.0266	1
147.9608	73
150.055	27
152.9632	9
155.0132	1
157.0367	5
157.9921	334
170.1174	1
172.0074	13
174.989	35
176.9867	363
178.0855	1
178.9648	45
181.9926	1
186.2227	5
187.0031	5
188.0029	72
190.0174	17
191.9777	10
196.0608	58
197.0672	1
198.0662	1
202.0436	15
203.075	1
203.9747	285
204.9818	136
205.9868	1
210.1103	1
213.1127	1
214.9998	10
215.9976	743
216.9919	36
218.042	68
219.0396	1
220.048	1
222.0547	13
222.994	8
224.1184	9
228.0392	8
228.9835	12
231.9695	158
234.0082	773
235.9834	8
239.033	29
242.049	7
245.0324	31
246.0085	1
248.0173	1
248.9731	96
249.9797	465
250.984	69
251.9807	589
252.9833	69
253.9764	235
254.9761	31
256.021	1
266.0306	1
269.9921	1
272.0363	1
273.0656	1
274.1347	1
276.0532	6
276.9675	1
279.0067	157
280.0102	40
280.9983	31
282.0054	5
283.0102	1
284.0328	10
286.0238	13
290.0186	1
291.0182	1
295.0078	4
295.9794	22
297.0082	156
298.0131	86
299.0432	57
300.0266	14
301.1233	1
307.0017	14
309.0391	123
310.0443	1
312.0476	81
312.9804	59
314.1048	12
315.0396	7
319.0328	23
320.0431	1
323.0385	30
323.9964	560
325.0148	228
326.0119	104
327.0064	1
330.0347	109
331.0409	13
333.0764	1
337.0165	51
341.0398	189
342.0042	144
343.0131	226
345.2424	1
351.9945	156
353.0181	79
354.0288	400
355.0326	140
358.0423	75
367.0048	10
369.0297	217
370.0002	133
371.1138	15
381.0147	35
382.0241	29
387.0435	295
388.0454	59
389.0074	17
398.0337	247
399.0278	301
400.0323	67
401.0351	19
408.0045	17
409.0653	1
413.0839	1
414.0853	1
415.0723	153
416.0759	1
417.0777	1
420.0745	159
421.0454	7
422.09	25
426.0792	88
427.0163	21
429.0605	228
430.0637	1
431.0656	1
433.0546	1
437.1458	31
440.0311	1
441.0334	1
442.0309	22
443.0361	1
444.0257	509
445.0293	139
446.0324	1
447.0323	11
448.0365	1
449.03	1
450.0702	15
451.1105	1
453.0256	1
454.0306	1
456.0248	56
457.0272	15
458.0314	1
459.2783	1
464.0104	1
465.0726	1
466.0415	8
467.0446	6
468.0804	8
470.077	1
472.0781	1
482.1179	26
497.9471	50
498.9529	117
499.9485	75
500.9527	21
501.9413	21
507.1351	1
511.2658	1
520.3306	1
525.2873	35
526.2916	6
529.981	1
550.0271	1
571.96	10
608.1272	1
624.1152	1
648.0741	1
663.0412	15
677.024	1
689.9926	10
691.9896	96
692.9943	31
693.9918	6
695.0007	1
696.0024	1
698.067	1
