Mass spectrum: (3S,5S,8R,9S,10S,13S,14S,16S,17R)-10,13-dimethyl-17-((S)-1-((2R,5R)-5-methyl-3-oxopiperidin-2-yl)ethyl)hexadecahydro-1H-cyclopenta[a]phenanthrene-3,16-diyl diacetate; APCI-ITFT; MS2; CE: CID 35;  [M-H]-
Name: (3S,5S,8R,9S,10S,13S,14S,16S,17R)-10,13-dimethyl-17-((S)-1-((2R,5R)-5-methyl-3-oxopiperidin-2-yl)ethyl)hexadecahydro-1H-cyclopenta[a]phenanthrene-3,16-diyl diacetate
Class: NA
Formula: C31H49NO5
Exact mass: 515.36107
SMILES: C[C@@]12[C@](CC[C@]3([H])[C@@]([H])2CC[C@@]4(C)[C@@]3([H])C[C@H](OC(C)=O)[C@]4([H])[C@H](C)[C@@H]5C(C[C@@H](C)CN5)=O)([H])C[C@@H](OC(C)=O)CC1
InChI: InChI=1S/C31H49NO5/c1-17-13-26(35)29(32-16-17)18(2)28-27(37-20(4)34)15-25-23-8-7-21-14-22(36-19(3)33)9-11-30(21,5)24(23)10-12-31(25,28)6/h17-18,21-25,27-29,32H,7-16H2,1-6H3/t17-,18+,21+,22+,23-,24+,25+,27+,28+,29-,30+,31+/m1/s1
Instrument: Orbitrap Elite
Instrument type: APCI-ITFT
Ms type: MS2
Ion mode: NEGATIVE
Ionization: APCI
Collision energy: CID 35
Column name: Acquity CSHC18
Retention time: 0.125 min
Base peak: 514.35330
Precursor m/z: 514.35330
Precursor type: [M-H]-
Precursor intensity: 729991.2
m/z	relative intensity
331.2254	22
357.2425	70
371.2587	20
413.2711	28
414.2286	44
430.2915	17
443.3088	11
452.274	12
454.2955	999
455.2808	89
468.3058	11
470.2897	49
472.2947	451
472.4337	17
486.3136	11
496.263	83
496.3478	88
