Mass spectrum: 8-(methylthio)octyl-glucosinolate; LC-ESI-QTOF; MS2; CE: 50eV;  [M-H]-
Name: 8-(methylthio)octyl-glucosinolate
Class: aliphatic glucosinolate
Formula: C16H31NO9S3
Exact mass: 477.1161
SMILES: O[C@H]1[C@@H](O)[C@@H](O)[C@H](S/C(CCCCCCCCSC)=N/OS(=O)(O)=O)O[C@@H]1CO
InChI: InChI=1S/C16H31NO9S3/c1-27-9-7-5-3-2-4-6-8-12(17-26-29(22,23)24)28-16-15(21)14(20)13(19)11(10-18)25-16/h11,13-16,18-21H,2-10H2,1H3,(H,22,23,24)/b17-12+/t11-,13-,14-,15-,16+/m1/s1
Instrument: TIMS-TOF Pro, Bruker Daltonik; Elute UHPLC System, Bruker Daltonik
Instrument type: LC-ESI-QTOF
Ms type: MS2
Ion mode: NEGATIVE
Ionization: ESI
Collision energy: 50eV
Column name: Acquity CSHC18
Retention time: 11.982 min
Base peak: 476.1001
Precursor m/z: 476.1001
Precursor type: [M-H]-
Precursor intensity: 21260.11
m/z	relative intensity
54.3915	7
59.0127	31
73.013	6
74.9892	205
75.9893	5
79.9556	61
80.9626	8
95.9506	318
96.9587	259
98.9515	7
233.4556	13
273.8041	8
476.1001	999
