Mass spectrum: Gibberellin A7; LC-ESI-QTOF; MS2; CE: 50eV;  [M-H]-
Name: Gibberellin A7
Class: Diterpene
Formula: C19H22O5
Exact mass: 330.1467
SMILES: CC12C(C=CC3(C1C(C45C3CCC(C4)C(=C)C5)C(=O)O)OC2=O)O
InChI: InChI=1S/C19H22O5/c1-9-7-18-8-10(9)3-4-11(18)19-6-5-12(20)17(2,16(23)24-19)14(19)13(18)15(21)22/h5-6,10-14,20H,1,3-4,7-8H2,2H3,(H,21,22)
Instrument: TIMS-TOF Pro, Bruker Daltonik; Elute UHPLC System, Bruker Daltonik
Instrument type: LC-ESI-QTOF
Ms type: MS2
Ion mode: NEGATIVE
Ionization: ESI
Collision energy: 50eV
Column name: Acquity CSHC18
Retention time: 8.035 min
Base peak: 329.1369
Precursor m/z: 329.1369
Precursor type: [M-H]-
Precursor intensity: 40234.88
m/z	relative intensity
43.0181	35
71.0499	32
73.0279	91
99.0425	23
117.9631	17
127.4347	31
141.0701	24
155.0874	64
156.0871	32
164.1893	17
179.0835	16
181.1043	14
185.1304	21
192.9057	16
195.0776	30
199.1441	20
207.1191	16
211.1092	73
212.1138	19
220.122	15
223.1442	999
223.2183	15
223.5671	14
224.1498	118
225.1519	18
241.1562	94
242.1624	24
255.0982	32
256.1003	27
267.1361	57
285.1458	34
311.1258	26
329.1355	242
