Mass spectrum: Guanosine; LC-ESI-QTOF; MS2; CE: 15 / 50;  [M+H]+
Name: Guanosine
Class: NA
Formula: C10H13N5O5
Exact mass: 283.09167
SMILES: NC1NC(=O)c2[n]c[n]([C@@H]3O[C@H](CO)[C@@H](O)[C@H]3O)c2N=1
InChI: InChI=1S/C10H13N5O5/c11-10-13-7-4(8(19)14-10)12-2-15(7)9-6(18)5(17)3(1-16)20-9/h2-3,5-6,9,16-18H,1H2,(H3,11,13,14,19)/t3-,5-,6-,9-/m1/s1
Instrument: impact II
Instrument type: LC-ESI-QTOF
Ms type: MS2
Ion mode: POSITIVE
Ionization: ESI
Collision energy: 15 / 50
Column name: Acquity CSHC18
Retention time: 0.600 min
Base peak: 284.09850
Precursor m/z: 284.09850
Precursor type: [M+H]+
m/z	relative intensity
110.0349	140
135.03	428
152.0565	999
