Mass spectrum: S-Adenosylhomocysteine; LC-ESI-ITFT; MS2; CE: 20;  [M+H]+
Name: S-Adenosylhomocysteine
Class: Nucleosides, nucleotides, and analogues; 5'-deoxyribonucleosides; 5'-deoxy-5'-thionucleosides
Formula: C14H20N6O5S
Exact mass: 384.12159
SMILES: N[C@@H](CCSC[C@H]1O[C@H]([C@H](O)[C@@H]1O)N1C=NC2=C1N=CN=C2N)C(O)=O
InChI: InChI=1S/C14H20N6O5S/c15-6(14(23)24)1-2-26-3-7-9(21)10(22)13(25-7)20-5-19-8-11(16)17-4-18-12(8)20/h4-7,9-10,13,21-22H,1-3,15H2,(H,23,24)(H2,16,17,18)/t6-,7+,9+,10+,13+/m0/s1
Instrument: Thermo Scientific Q-Exactive Focus
Instrument type: LC-ESI-ITFT
Ms type: MS2
Ion mode: POSITIVE
Ionization: ESI
Collision energy: 20
Column name: Acquity CSHC18
Retention time: 0.631 min
Base peak: 385.12885
Precursor m/z: 385.12885
Precursor type: [M+H]+
m/z	relative intensity
88.0218	69
97.0286	20
99.0442	15
134.0271	974
136.0426	3
136.0617	999
148.0425	4
232.0633	11
250.074	73
385.1285	6
