Mass spectrum: Pyruvic acid; LC-ESI-ITFT; MS2; CE: 60;  [M-H]-
Name: Pyruvic acid
Class: Organic acids and derivatives; Keto acids and derivatives; Alpha-keto acids and derivatives
Formula: C3H4O3
Exact mass: 88.01604
SMILES: CC(=O)C(O)=O
InChI: InChI=1S/C3H4O3/c1-2(4)3(5)6/h1H3,(H,5,6)
Instrument: Thermo Scientific Q-Exactive Focus
Instrument type: LC-ESI-ITFT
Ms type: MS2
Ion mode: NEGATIVE
Ionization: ESI
Collision energy: 60
Column name: Acquity CSHC18
Retention time: 2.028 min
Base peak: 87.00877
Precursor m/z: 87.00877
Precursor type: [M-H]-
m/z	relative intensity
59.6304	869
59.7742	851
64.7645	954
70.3834	894
77.8318	986
82.0952	999
94.2098	839
98.6147	982
102.3388	968
103.0034	988
