Mass spectrum: Amyloheptaose; LC-ESI-QTOF; MS2; CE: -10, -35, -60V;  [M-H]-
Name: Amyloheptaose
Class: NA
Formula: C42H72O36
Exact mass: 1152.3803
SMILES: C(C1C(C(C(C(O1)OC2C(OC(C(C2O)O)OC3C(OC(C(C3O)O)OC4C(OC(C(C4O)O)OC5C(OC(C(C5O)O)OC6C(OC(C(C6O)O)OC7C(OC(C(C7O)O)O)CO)CO)CO)CO)CO)CO)O)O)O)O
InChI: InChI=1S/C42H72O36/c43-1-8-15(50)16(51)24(59)37(67-8)74-31-10(3-45)69-39(26(61)18(31)53)76-33-12(5-47)71-41(28(63)20(33)55)78-35-14(7-49)72-42(29(64)22(35)57)77-34-13(6-48)70-40(27(62)21(34)56)75-32-11(4-46)68-38(25(60)19(32)54)73-30-9(2-44)66-36(65)23(58)17(30)52/h8-65H,1-7H2
Instrument: TripleToF 5600; Sciex
Instrument type: LC-ESI-QTOF
Ms type: MS2
Ion mode: NEGATIVE
Ionization: ESI
Collision energy: -10, -35, -60V
Column name: Acquity CSHC18
Retention time: 0.693 min
Base peak: 1151.3930
Precursor m/z: 1151.3930
Precursor type: [M-H]-
Precursor intensity: 11227.25
m/z	relative intensity
101.026	14
143.0363	19
161.0467	254
162.055	16
179.0578	75
221.0638	12
263.0754	17
281.0877	57
282.0968	9
341.1079	236
342.1149	36
383.1259	55
425.1296	85
426.1431	13
443.1434	73
444.1454	14
503.1629	170
504.1766	31
545.1676	108
546.1865	26
587.1822	95
588.178	19
605.194	45
665.2237	225
666.2144	64
666.2472	40
667.2277	24
668.2417	4
707.2219	134
708.232	34
767.2534	29
768.2469	9
827.2639	250
828.2711	89
829.283	41
830.2832	8
869.2902	122
870.2727	32
871.3058	11
912.3152	6
929.3118	16
989.3467	209
990.3326	117
991.3324	33
1031.3234	46
1032.348	17
1073.3441	23
1074.3525	8
1142.8894	5
1149.3503	7
1151.3946	999
1151.8402	26
1151.8785	81
