Mass spectrum: CYSTEATE; LC-ESI-QTOF; MS2; CE: 20;  [M+H]+
Name: CYSTEATE
Class: NA
Formula: C3H7NO5S
Exact mass: 169.0045
SMILES: NC(CS(O)(=O)=O)C(O)=O
InChI: InChI=1S/C3H7NO5S/c4-2(3(5)6)1-10(7,8)9/h2H,1,4H2,(H,5,6)(H,7,8,9)
Instrument: Agilent 6530Â Q-TOF LC/MS
Instrument type: LC-ESI-QTOF
Ms type: MS2
Ion mode: POSITIVE
Ionization: ESI
Collision energy: 20
Column name: NA
Retention time: 0.200 min
Base peak: 170.01155
Precursor m/z: 170.01155
Precursor type: [M+H]+
Precursor intensity: 148.5
m/z	relative intensity
42.0337	311
43.0423	141
44.0513	55
105.9955	543
124.0047	999
