Mass spectrum: GLUCOSAMINATE; LC-ESI-QFT; MS2; CE: 30eV;  [M-H]-
Name: GLUCOSAMINATE
Class: NA
Formula: C6H13NO6
Exact mass: 195.07429
SMILES: C(C(C(C(C(C(=O)O)N)O)O)O)O
InChI: InChI=1S/C6H13NO6/c7-3(6(12)13)5(11)4(10)2(9)1-8/h2-5,8-11H,1,7H2,(H,12,13)
Instrument: Q-Exactive Orbitrap, Thermo Scientfic; Ultimate 3000 HPLC, Thermo Scientfic
Instrument type: LC-ESI-QFT
Ms type: MS2
Ion mode: NEGATIVE
Ionization: ESI
Collision energy: 30eV
Column name: Acquity CSHC18
Retention time: 0.568 min
Base peak: 194.0670
Precursor m/z: 194.0670
Precursor type: [M-H]-
Precursor intensity: 145
m/z	relative intensity
50.8887	1
52.9297	1
53.8395	1
54.2758	1
54.5402	1
54.8533	1
57.7852	1
59.0123	242
60.0157	2
63.0343	1
66.0333	1
68.0126	1
70.0282	30
70.4434	1
71.0123	30
71.2877	1
74.0232	999
75.0265	15
78.0334	1
82.0283	6
83.0121	1
84.0438	17
86.0232	226
87.0265	6
88.0388	3
89.0228	49
96.0439	9
98.0232	223
99.0265	6
100.0387	1
100.7707	1
101.0228	35
103.2803	1
104.9274	25
106.0392	1
110.0233	2
110.6137	1
112.0388	3
112.6355	1
119.0334	9
124.0302	1
128.0338	94
129.0372	2
132.9053	4
132.9337	9
140.0339	6
147.9957	1
148.5954	1
148.9178	2
148.9831	5
150.9145	11
158.0446	64
159.0477	2
168.9247	1
176.055	15
194.0661	295
195.0695	24
