Mass spectrum: Nicotianoside XIII; LC-ESI-QTOF; MS2; CE: 18eV;  [M+NH4]+
Name: Nicotianoside XIII
Class: Diterpene
Formula: C47H70O26
Exact mass: 1050.4155
SMILES: O=C(O)CC(=O)OC[C@H]1O[C@@H](O[C@](C)(C=C)CC\C=C(/C)CC\C=C(/C)CC\C=C(\C)CO[C@@H]2O[C@H](COC(=O)CC(=O)O)[C@@H](O)[C@H](O)[C@H]2O[C@@H]2O[C@H](COC(=O)CC(=O)O)[C@@H](O)[C@H](O)[C@H]2O)[C@H](O)[C@@H](O)[C@@H]1O
InChI: InChI=1S/C47H70O26/c1-6-47(5,73-45-42(64)39(61)36(58)27(70-45)21-66-33(55)17-30(50)51)15-9-14-24(3)11-7-10-23(2)12-8-13-25(4)19-68-46-43(40(62)37(59)28(71-46)22-67-34(56)18-31(52)53)72-44-41(63)38(60)35(57)26(69-44)20-65-32(54)16-29(48)49/h6,10,13-14,26-28,35-46,57-64H,1,7-9,11-12,15-22H2,2-5H3,(H,48,49)(H,50,51)(H,52,53)/b23-10+,24-14+,25-13-/t26-,27-,28-,35-,36-,37-,38+,39+,40+,41-,42-,43-,44+,45+,46-,47-/m1/s1
Instrument: Impact II qTOF
Instrument type: LC-ESI-QTOF
Ms type: MS2
Ion mode: POSITIVE
Ionization: ESI
Collision energy: 18eV
Column name: Acquity CSH C18 column (particle size 1.7 μm, column length 2.1 × 50 mm) (Waters)
Retention time: 20.8 min
Base peak: 1068.4463
Precursor m/z: 1068.4463
Precursor type: [M+NH4]+
m/z	relative intensity
215.1807	3
249.0609	3
271.2425	48
272.2451	10
333.0829	3
461.0922	7
479.1024	18
497.1142	47
498.1163	7
515.1222	3
519.2953	2
727.1581	2
745.1667	5
785.359	2
1068.4463	999
