Mass spectrum: PURINE; LC-ESI-QTOF; MS2; CE: 10;  [M-H]-
Name: PURINE
Class: NA
Formula: C5H4N4
Exact mass: 120.04360
SMILES: N1C=NC2=C1C=NC=N2
InChI: InChI=1S/C5H4N4/c1-4-5(8-2-6-1)9-3-7-4/h1-3H,(H,6,7,8,9)
Instrument: Agilent 6530Â Q-TOF LC/MS
Instrument type: LC-ESI-QTOF
Ms type: MS2
Ion mode: NEGATIVE
Ionization: ESI
Collision energy: 10
Column name: NA
Retention time: 0.200 min
Base peak: 119.03425
Precursor m/z: 119.03425
Precursor type: [M-H]-
Precursor intensity: 105
m/z	relative intensity
41.0138	107
64.0046	108
65.0202	208
92.0295	307
119.0561	999
