Mass spectrum: Cer(d18:0/16:0); LC-ESI-ITFT; MS2; CE: 40;  [M+H]+
Name: Cer(d18:0/16:0)
Class: Lipids and lipid-like molecules; Sphingolipids; Ceramides
Formula: C34H69NO3
Exact mass: 539.52775
SMILES: CCCCCCCCCCCCCCC[C@@H](O)[C@H](CO)NC(=O)CCCCCCCCCCCCCCC
InChI: InChI=1S/C34H69NO3/c1-3-5-7-9-11-13-15-17-19-21-23-25-27-29-33(37)32(31-36)35-34(38)30-28-26-24-22-20-18-16-14-12-10-8-6-4-2/h32-33,36-37H,3-31H2,1-2H3,(H,35,38)/t32-,33+/m0/s1
Instrument: Thermo Scientific Q-Exactive Focus
Instrument type: LC-ESI-ITFT
Ms type: MS2
Ion mode: POSITIVE
Ionization: ESI
Collision energy: 40
Column name: Acquity CSHC18
Retention time: 1.463 min
Base peak: 540.53503
Precursor m/z: 540.53503
Precursor type: [M+H]+
m/z	relative intensity
60.0449	525
67.0547	199
81.0703	320
83.0859	187
95.0858	426
109.1013	226
256.2631	997
266.2838	845
284.2943	999
522.5236	260
