Mass spectrum: Prostaglandin E2-1-glyceryl ester; ESI-TOF; MS2; CE: 0.6458333;  [M+H]+
Name: Prostaglandin E2-1-glyceryl ester
Class: NA
Formula: C23H38O7
Exact mass: 426.26175
SMILES: CCCCCC(C=CC1C(CC(=O)C1CC=CCCCC(=O)OCC(CO)O)O)O
InChI: InChI=1S/C23H38O7/c1-2-3-6-9-17(25)12-13-20-19(21(27)14-22(20)28)10-7-4-5-8-11-23(29)30-16-18(26)15-24/h4,7,12-13,17-20,22,24-26,28H,2-3,5-6,8-11,14-16H2,1H3
Instrument: waters xevo g2 TOF
Instrument type: ESI-TOF
Ms type: MS2
Ion mode: POSITIVE
Ionization: ESI
Collision energy: 0.6458333
Column name: Acquity CSHC18
Retention time: 3.392 min
Base peak: 427.26975
Precursor m/z: 427.26975
Precursor type: [M+H]+
m/z	relative intensity
67.0524	54
81.0697	154
91.0544	202
93.0708	246
105.0716	341
107.0873	161
109.0665	99
119.0871	296
129.0534	104
131.0864	416
133.1023	275
141.0735	83
143.0862	187
145.1023	264
147.1187	120
149.1317	47
155.0872	163
157.102	173
159.0841	208
161.1333	255
169.1043	125
175.1107	61
183.1174	218
185.1348	99
187.1467	67
189.1285	141
197.0964	120
201.129	216
203.1385	82
207.0653	50
211.111	95
215.1448	354
216.1454	69
225.1275	57
227.1784	246
239.1781	129
245.1894	351
255.1753	69
257.1861	94
271.2055	280
273.1909	132
281.1891	370
282.1923	79
299.2013	759
319.1371	136
347.2252	115
355.155	179
359.182	69
370.1268	87
371.1313	999
372.1348	140
373.201	656
388.1317	265
389.1399	506
390.1477	68
391.2124	303
392.2508	83
410.1626	132
