Mass spectrum: Digalactosyldiacylglycerol (Plant); ESI-TOF; MS2; CE: 0.6458333;  [M+H]+
Name: Digalactosyldiacylglycerol (Plant)
Class: NA
Formula: C51H84O15
Exact mass: 936.58102
SMILES: [H]OC([H])([H])C2([H])(OC([H])(OC([H])([H])C1([H])(OC([H])(OC([H])([H])C([H])(OC(=O)C([H])([H])C([H])([H])C([H])([H])C([H])([H])C([H])([H])C([H])([H])C([H])([H])C([H])=C([H])C([H])([H])C([H])=C([H])C([H])([H])C([H])=C([H])C([H])([H])C([H])([H])[H])C([H])([H])OC(=O)C([H])([H])C([H])([H])C([H])([H])C([H])([H])C([H])([H])C([H])([H])C([H])([H])C([H])=C([H])C([H])([H])C([H])=C([H])C([H])([H])C([H])=C([H])C([H])([H])C([H])([H])[H])C([H])(O[H])C([H])(O[H])C1([H])(O[H])))C([H])(O[H])C([H])(O[H])C2([H])(O[H]))
InChI: InChI=1S/C51H84O15/c1-3-5-7-9-11-13-15-17-19-21-23-25-27-29-31-33-42(53)61-36-39(64-43(54)34-32-30-28-26-24-22-20-18-16-14-12-10-8-6-4-2)37-62-50-49(60)47(58)45(56)41(66-50)38-63-51-48(59)46(57)44(55)40(35-52)65-51/h5-8,11-14,17-20,39-41,44-52,55-60H,3-4,9-10,15-16,21-38H2,1-2H3
Instrument: waters xevo g2 TOF
Instrument type: ESI-TOF
Ms type: MS2
Ion mode: POSITIVE
Ionization: ESI
Collision energy: 0.6458333
Column name: Acquity CSHC18
Retention time: 10.528 min
Base peak: 937.58902
Precursor m/z: 937.58902
Precursor type: [M+H]+
m/z	relative intensity
81.0715	73
95.0869	55
109.102	66
121.1021	61
127.0407	39
135.1177	50
170.9975	54
219.0535	79
259.2069	42
261.2217	90
295.1946	66
317.1804	999
318.1832	207
333.1973	40
335.2592	352
336.2634	87
337.2721	65
349.1597	312
349.662	66
488.2712	248
488.7733	139
489.2738	49
490.2633	6
587.4672	14
595.4716	209
596.4748	83
613.4837	760
614.4866	328
615.4897	78
659.3639	46
715.3228	81
769.4837	38
