Mass spectrum: 2-Pyrocatechuic acid; LC-ESI-ITFT; MS2; CE: 60;  [M-H]-
Name: 2-Pyrocatechuic acid
Class: Benzenoids; Benzene and substituted derivatives; Benzoic acids and derivatives
Formula: C7H6O4
Exact mass: 154.02661
SMILES: OC(=O)C1=C(O)C(O)=CC=C1
InChI: InChI=1S/C7H6O4/c8-5-3-1-2-4(6(5)9)7(10)11/h1-3,8-9H,(H,10,11)
Instrument: Thermo Scientific Q-Exactive Focus
Instrument type: LC-ESI-ITFT
Ms type: MS2
Ion mode: NEGATIVE
Ionization: ESI
Collision energy: 60
Column name: Acquity CSHC18
Retention time: 2.029 min
Base peak: 153.01933
Precursor m/z: 153.01933
Precursor type: [M-H]-
m/z	relative intensity
58.4358	173
65.0021	999
95.9528	177
118.7606	181
120.9755	165
140.2757	185
157.5416	187
165.6327	166
173.2751	174
173.6336	185
