Mass spectrum: Ginkgetin; LC-ESI-QFT; MS2; CE: 15,30,45 (NCE);  [2M+Na]+
Name: Ginkgetin
Class: NA
Formula: C32H22O10
Exact mass: 566.1213
SMILES: COC1=CC(O)=C2C(=O)C=C(OC2=C1)C1=CC(=C(OC)C=C1)C1=C2OC(=CC(=O)C2=C(O)C=C1O)C1=CC=C(O)C=C1
InChI: InChI=1S/C32H22O10/c1-39-18-10-20(34)30-23(37)13-27(41-28(30)11-18)16-5-8-25(40-2)19(9-16)29-21(35)12-22(36)31-24(38)14-26(42-32(29)31)15-3-6-17(33)7-4-15/h3-14,33-36H,1-2H3
Instrument: QE Focus, Thermo Scientfic; UPLC I-Class, Waters
Instrument type: LC-ESI-QFT
Ms type: MS2
Ion mode: POSITIVE
Ionization: ESI
Collision energy: 15,30,45 (NCE)
Column name: Acquity CSHC18
Retention time: 3.655 min
Base peak: 1155.2320
Precursor m/z: 1155.2320
Precursor type: [2M+Na]+
Precursor intensity: 1219676
m/z	relative intensity
110.9318	11
252.4651	12
273.0571	10
353.4411	11
382.4632	13
382.5025	33
382.5458	22
589.1103	999
630.136	12
710.085	11
