Mass spectrum: Citrulline; LC-ESI-ITFT; MS2; CE: 20;  [M+H]+
Name: Citrulline
Class: Organic acids and derivatives; Carboxylic acids and derivatives; Amino acids, peptides, and analogues
Formula: C6H13N3O3
Exact mass: 175.09569
SMILES: N[C@@H](CCCNC(N)=O)C(O)=O
InChI: InChI=1S/C6H13N3O3/c7-4(5(10)11)2-1-3-9-6(8)12/h4H,1-3,7H2,(H,10,11)(H3,8,9,12)/t4-/m0/s1
Instrument: Thermo Scientific Q-Exactive Focus
Instrument type: LC-ESI-ITFT
Ms type: MS2
Ion mode: POSITIVE
Ionization: ESI
Collision energy: 20
Column name: Acquity CSHC18
Retention time: 0.631 min
Base peak: 176.10297
Precursor m/z: 176.10297
Precursor type: [M+H]+
m/z	relative intensity
70.0657	999
86.0605	20
97.008	55
113.0712	374
114.0552	52
115.0868	20
116.0708	34
125.0027	46
130.0653	183
159.0764	39
