Mass spectrum: ADENOSINE 2',3'-CYCLIC PHOSPHATE; LC-ESI-QTOF; MS2; CE: 20;  [M+H]+
Name: ADENOSINE 2',3'-CYCLIC PHOSPHATE
Class: NA
Formula: C10H12N5O6P
Exact mass: 329.0525
SMILES: NC1=NC=NC2=C1N=CN2C1OC(CO)C2OP(O)(=O)OC12
InChI: InChI=1S/C10H12N5O6P/c11-8-5-9(13-2-12-8)15(3-14-5)10-7-6(4(1-16)19-10)20-22(17,18)21-7/h2-4,6-7,10,16H,1H2,(H,17,18)(H2,11,12,13)
Instrument: Agilent 6530Â Q-TOF LC/MS
Instrument type: LC-ESI-QTOF
Ms type: MS2
Ion mode: POSITIVE
Ionization: ESI
Collision energy: 20
Column name: NA
Retention time: 0.200 min
Base peak: 330.05975
Precursor m/z: 330.05975
Precursor type: [M+H]+
Precursor intensity: 91.5
m/z	relative intensity
69.0348	13
80.9724	14
84.0794	15
98.9846	16
116.109	17
119.0339	21
123.1166	32
136.0618	37
137.0628	92
202.0758	94
330.0634	100
330.2444	999
