Mass spectrum: Citric acid; LC-ESI-ITFT; MS2; CE: 10;  [M-H]-
Name: Citric acid
Class: Organic acids and derivatives; Carboxylic acids and derivatives; Tricarboxylic acids and derivatives
Formula: C6H8O7
Exact mass: 192.02700
SMILES: OC(=O)CC(O)(CC(O)=O)C(O)=O
InChI: InChI=1S/C6H8O7/c7-3(8)1-6(13,5(11)12)2-4(9)10/h13H,1-2H2,(H,7,8)(H,9,10)(H,11,12)
Instrument: Thermo Scientific Q-Exactive Focus
Instrument type: LC-ESI-ITFT
Ms type: MS2
Ion mode: NEGATIVE
Ionization: ESI
Collision energy: 10
Column name: Acquity CSHC18
Retention time: 0.360 min
Base peak: 191.01973
Precursor m/z: 191.01973
Precursor type: [M-H]-
m/z	relative intensity
85.0283	154
87.0075	218
87.9241	40
102.9476	999
103.919	36
111.0076	812
129.0182	60
146.9376	496
191.0189	198
191.107	43
