Mass spectrum: Bis(2-ethylhexyl) phthalate; LC-ESI-QTOF; MS2; CE: 10;  [M+H]+
Name: Bis(2-ethylhexyl) phthalate
Class: NA
Formula: C24H38O4
Exact mass: 390.2770
SMILES: CCCCC(CC)COC(=O)C1=CC=CC=C1C(=O)OCC(CC)CCCC
InChI: InChI=1S/C24H38O4/c1-5-9-13-19(7-3)17-27-23(25)21-15-11-12-16-22(21)24(26)28-18-20(8-4)14-10-6-2/h11-12,15-16,19-20H,5-10,13-14,17-18H2,1-4H3
Instrument: Agilent 6560Â Ion Mobility Q-TOF LC/MS
Instrument type: LC-ESI-QTOF
Ms type: MS2
Ion mode: POSITIVE
Ionization: ESI
Collision energy: 10
Column name: Acquity CSHC18
Retention time: 0.200 min
Base peak: 391.2877
Precursor m/z: 391.2877
Precursor type: [M+H]+
Precursor intensity: 104.5
m/z	relative intensity
71.0884	128
149.0358	196
150.0262	240
167.0365	999
