Mass spectrum: L-kynurenine; LC-ESI-QTOF; MS2; CE: 35.00;  [M+H]+
Name: L-kynurenine
Class: NA
Formula: C10H12N2O3
Exact mass: 208.0848
SMILES: C1=CC=C(C(=C1)C(=O)CC(C(=O)O)N)N
InChI: InChI=1S/C10H12N2O3/c11-7-4-2-1-3-6(7)9(13)5-8(12)10(14)15/h1-4,8H,5,11-12H2,(H,14,15)
Instrument: Bruker MicrOTOF-Q
Instrument type: LC-ESI-QTOF
Ms type: MS2
Ion mode: POSITIVE
Ionization: ESI
Collision energy: 35.00
Column name: Acquity CSHC18
Retention time: NA
Base peak: 209.0933
Precursor m/z: 209.0933
Precursor type: [M+H]+
m/z	relative intensity
104.0422	20
116.0499	18
117.0564	470
118.0633	299
119.0673	54
120.0441	311
120.9492	32
121.0447	37
128.0498	288
129.054	50
132.0428	344
133.0434	24
136.0836	31
139.0472	14
146.0592	999
147.0613	68
161.0738	28
166.0668	14
178.0618	13
181.0722	19
