Mass spectrum: L-Tyrosine; LC-ESI-QTOF; MS2; CE: 15.00;  [M-NH3+H]+
Name: L-Tyrosine
Class: NA
Formula: C9H11NO3
Exact mass: 181.0739
SMILES: C1=CC(=CC=C1CC(C(=O)O)N)O
InChI: InChI=1S/C9H11NO3/c10-8(9(12)13)5-6-1-3-7(11)4-2-6/h1-4,8,11H,5,10H2,(H,12,13)
Instrument: Bruker MicrOTOF-Q
Instrument type: LC-ESI-QTOF
Ms type: MS2
Ion mode: POSITIVE
Ionization: ESI
Collision energy: 15.00
Column name: Acquity CSHC18
Retention time: NA
Base peak: 165.0546
Precursor m/z: 165.0546
Precursor type: [M-NH3+H]+
m/z	relative intensity
77.03	7
81.48	4
91.05	122
94.04	6
95.05	429
96.05	18
102.05	11
103.05	82
107.05	5
109.06	51
112.58	4
118.96	4
119.05	669
119.19	3
119.9	3
120.05	54
121.06	12
121.28	4
122.33	4
122.46	8
122.51	12
122.66	11
122.72	33
122.76	12
122.96	5
123.04	999
123.19	8
123.24	4
123.46	4
124.04	98
124.15	4
137.06	44
138.06	5
147.04	125
148.05	8
149.05	8
165.05	11
