Mass spectrum: Pyruvic acid; LC-ESI-ITFT; MS2; CE: 30;  [M-H]-
Name: Pyruvic acid
Class: Organic acids and derivatives; Keto acids and derivatives; Alpha-keto acids and derivatives
Formula: C3H4O3
Exact mass: 88.01604
SMILES: CC(=O)C(O)=O
InChI: InChI=1S/C3H4O3/c1-2(4)3(5)6/h1H3,(H,5,6)
Instrument: Thermo Scientific Q-Exactive Focus
Instrument type: LC-ESI-ITFT
Ms type: MS2
Ion mode: NEGATIVE
Ionization: ESI
Collision energy: 30
Column name: Acquity CSHC18
Retention time: NA
Base peak: 87.00877
Precursor m/z: 87.00877
Precursor type: [M-H]-
m/z	relative intensity
52.8765	795
57.7227	781
59.3456	790
59.3463	915
63.7099	844
68.2655	768
82.0304	777
83.0231	784
89.1897	742
104.9497	999
