Mass spectrum: Citric acid; LC-ESI-ITFT; MS2; CE: 20;  [M-H]-
Name: Citric acid
Class: Organic acids and derivatives; Carboxylic acids and derivatives; Tricarboxylic acids and derivatives
Formula: C6H8O7
Exact mass: 192.02700
SMILES: OC(=O)CC(O)(CC(O)=O)C(O)=O
InChI: InChI=1S/C6H8O7/c7-3(8)1-6(13,5(11)12)2-4(9)10/h13H,1-2H2,(H,7,8)(H,9,10)(H,11,12)
Instrument: Thermo Scientific Q-Exactive Focus
Instrument type: LC-ESI-ITFT
Ms type: MS2
Ion mode: NEGATIVE
Ionization: ESI
Collision energy: 20
Column name: Acquity CSHC18
Retention time: 0.642 min
Base peak: 191.01973
Precursor m/z: 191.01973
Precursor type: [M-H]-
m/z	relative intensity
57.0334	72
58.9578	99
85.0283	287
87.0075	575
87.9241	407
102.9476	999
103.919	51
105.9347	46
111.0076	672
123.9453	139
