Mass spectrum: OPHTHALMATE; LC-ESI-QTOF; MS2; CE: 20;  [M+H]+
Name: OPHTHALMATE
Class: NA
Formula: C11H19N3O6
Exact mass: 289.12739
SMILES: CC[C@H](NC(=O)CC[C@H](N)C(O)=O)C(=O)NCC(O)=O
InChI: InChI=1S/C11H19N3O6/c1-2-7(10(18)13-5-9(16)17)14-8(15)4-3-6(12)11(19)20/h6-7H,2-5,12H2,1H3,(H,13,18)(H,14,15)(H,16,17)(H,19,20)/t6-,7-/m0/s1
Instrument: Agilent 6530Â Q-TOF LC/MS
Instrument type: LC-ESI-QTOF
Ms type: MS2
Ion mode: POSITIVE
Ionization: ESI
Collision energy: 20
Column name: NA
Retention time: 0.200 min
Base peak: 290.13049
Precursor m/z: 290.13049
Precursor type: [M+H]+
Precursor intensity: 81.5
m/z	relative intensity
41.0503	43
58.2395	47
59.0737	62
76.0454	62
84.0732	76
85.0296	79
96.0662	79
102.0536	80
123.1037	99
124.0945	109
130.0637	121
142.064	148
161.1244	162
169.1142	173
170.092	174
197.1016	189
215.1206	210
227.123	406
273.1092	648
290.1304	999
