Mass spectrum: 3-Nitrotyrosine; LC-ESI-ITFT; MS2; CE: 10;  [M-H]-
Name: 3-Nitrotyrosine
Class: Organic acids and derivatives; Carboxylic acids and derivatives; Amino acids, peptides, and analogues
Formula: C9H10N2O5
Exact mass: 226.05897
SMILES: N[C@@H](CC1=CC=C(O)C(=C1)[N+]([O-])=O)C(O)=O
InChI: InChI=1S/C9H10N2O5/c10-6(9(13)14)3-5-1-2-8(12)7(4-5)11(15)16/h1-2,4,6,12H,3,10H2,(H,13,14)/t6-/m0/s1
Instrument: Thermo Scientific Q-Exactive Focus
Instrument type: LC-ESI-ITFT
Ms type: MS2
Ion mode: NEGATIVE
Ionization: ESI
Collision energy: 10
Column name: Acquity CSHC18
Retention time: 0.366 min
Base peak: 225.05170
Precursor m/z: 225.05170
Precursor type: [M-H]-
m/z	relative intensity
119.049	44
134.0599	105
136.0392	135
150.0549	16
151.0263	73
163.0503	999
164.0343	175
181.0609	498
208.0245	32
225.0512	667
