Mass spectrum: L-Acetylcarnitine; ESI-TOF; MS2; CE: 6.0000000;  [M+H]+
Name: L-Acetylcarnitine
Class: NA
Formula: C9H17NO4
Exact mass: 203.11576
SMILES: CC(=O)OC(CC([O-])=O)C[N+](C)(C)C
InChI: InChI=1S/C9H17NO4/c1-7(11)14-8(5-9(12)13)6-10(2,3)4/h8H,5-6H2,1-4H3
Instrument: waters xevo g2 TOF
Instrument type: ESI-TOF
Ms type: MS2
Ion mode: POSITIVE
Ionization: ESI
Collision energy: 6.0000000
Column name: Acquity CSHC18
Retention time: 0.572 min
Base peak: 204.12376
Precursor m/z: 204.12376
Precursor type: [M+H]+
m/z	relative intensity
85.0292	146
86.0326	5
96.9616	5
113.9642	15
113.9643	30
130.0084	3
130.0089	3
135.9925	2
135.9926	7
137.9879	52
137.9881	70
140.9962	14
144.1024	11
146.0533	9
147.0554	1
152.9955	2
158.0037	4
158.0038	4
162.113	37
163.1151	2
191.0221	1
204.1239	999
205.1269	338
206.1293	41
207.1315	3
218.1391	6
226.1066	2
236.9381	2
407.2396	12
408.2426	2
