Mass spectrum: (E)-p-coumaric acid; LC-ESI-QTOF; MS2; CE: 15;  [M-H]-
Name: (E)-p-coumaric acid
Class: NA
Formula: C9H8O3
Exact mass: 164.0473
SMILES: C1=CC(=CC=C1C=CC(=O)O)O
InChI: InChI=1S/C9H8O3/c10-8-4-1-7(2-5-8)3-6-9(11)12/h1-6,10H,(H,11,12)
Instrument: Bruker MicrOTOF-Q
Instrument type: LC-ESI-QTOF
Ms type: MS2
Ion mode: NEGATIVE
Ionization: ESI
Collision energy: 15
Column name: Acquity CSHC18
Retention time: NA
Base peak: 163.0401
Precursor m/z: 163.0401
Precursor type: [M-H]-
m/z	relative intensity
58.37	16
82.5976	16
94.0314	31
101.4979	16
110.7696	16
115.5635	14
116.0638	22
120.2771	999
124.413	9
125.1959	11
125.8366	12
127.6797	8
129.7408	8
130.4783	10
131.3194	7
133.0205	8
134.0028	7
135.2204	11
138.9582	8
142.4793	8
144.8695	76
146.0355	16
146.4996	17
148.955	7
153.6686	10
156.8427	13
163.1458	49
167.5494	19
171.3898	13
178.1123	10
178.7985	20
180.385	13
205.1003	15
207.5741	16
215.9095	16
221.4529	12
224.0187	13
224.4641	16
226.3578	16
239.2731	8
239.9741	16
260.6469	15
264.972	7
274.3394	17
344.6684	11
355.168	14
466.3689	15
470.2402	10
486.7427	11
685.5865	8
775.709	10
965.7586	7
1003.8485	8
