Mass spectrum: Arjunolic acid; LC-ESI-ITFT; MS2; CE: 0.3;  [M-H]-
Name: Arjunolic acid
Class: triterpenic acids
Formula: C30H48O5
Exact mass: 488.3502
SMILES: CC1(CCC2(CCC3(C(=CCC4C3(CCC5C4(CC(C(C5(C)CO)O)O)C)C)C2C1)C)C(=O)O)C
InChI: InChI=1S/C30H48O5/c1-25(2)11-13-30(24(34)35)14-12-28(5)18(19(30)15-25)7-8-22-26(3)16-20(32)23(33)27(4,17-31)21(26)9-10-29(22,28)6/h7,19-23,31-33H,8-17H2,1-6H3,(H,34,35)
Instrument: LTQ-Orbitrap XL hybrid mass spectrometer (Thermo Scientific)
Instrument type: LC-ESI-ITFT
Ms type: MS2
Ion mode: NEGATIVE
Ionization: ESI
Collision energy: 0.3
Column name: Acquity CSHC18
Retention time: 11.770 min
Base peak: 487.3420
Precursor m/z: 487.3420
Precursor type: [M-H]-
Precursor intensity: 649608.8
m/z	relative intensity
135.5714	177
142.6177	145
150.0224	175
156.8346	213
167.0933	483
183.608	174
222.756	218
240.9424	237
261.2511	213
261.2959	201
262.8673	192
282.0472	266
286.9773	238
289.1709	240
298.7424	268
309.099	241
310.302	232
314.1036	206
318.0148	268
324.1799	205
324.2127	300
327.4921	199
329.6227	223
330.1747	267
332.5661	311
334.3095	370
336.2234	258
340.0657	208
343.85	247
353.0115	278
362.9432	228
371.5464	266
371.8773	270
374.5039	259
380.306	224
384.3433	222
390.5543	287
404.3512	223
407.9665	220
409.3089	999
419.3673	276
424.7527	266
448.0085	263
457.9394	214
467.2835	224
468.9623	275
470.3218	215
481.8253	224
