Mass spectrum: p-Aminobenzoic acid; ESI-TOF; MS2; CE: 6.0000000;  [M+H]+
Name: p-Aminobenzoic acid
Class: NA
Formula: C7H7NO2
Exact mass: 137.04768
SMILES: NC1=CC=C(C=C1)C(O)=O
InChI: InChI=1S/C7H7NO2/c8-6-3-1-5(2-4-6)7(9)10/h1-4H,8H2,(H,9,10)
Instrument: waters xevo g2 TOF
Instrument type: ESI-TOF
Ms type: MS2
Ion mode: POSITIVE
Ionization: ESI
Collision energy: 6.0000000
Column name: Acquity CSHC18
Retention time: 1.603 min
Base peak: 138.05568
Precursor m/z: 138.05568
Precursor type: [M+H]+
m/z	relative intensity
94.0658	42
120.045	127
121.0479	32
135.9931	6
135.9934	8
138.0555	999
138.9901	8
139.0587	75
140.06	9
140.0607	14
184.0988	6
186.9575	3
186.9577	6
227.082	45
228.0878	15
229.0967	12
229.0968	4
250.9556	7
277.9979	2
318.1261	11
