Mass spectrum: Petunidin-3-Caffeoyl rutinoside-5-glucoside; LC-ESI-ITFT; MS2; CE: 35eV;  [M-2H]-
Name: Petunidin-3-Caffeoyl rutinoside-5-glucoside
Class: Anthocyanidin
Formula: [C43H49O24]+
Exact mass: 949.2608
SMILES: CC1C(C(C(C(O1)OCC2C(C(C(C(O2)OC3=C([O+]=C4C=C(C=C(C4=C3)OC5C(C(C(C(O5)CO)O)O)O)O)C6=CC(=C(C(=C6)OC)O)O)O)O)O)O)O)OC(=O)C=CC7=CC(=C(C=C7)O)O
InChI: InChI=1S/C43H48O24/c1-15-39(67-29(49)6-4-16-3-5-20(46)21(47)7-16)35(55)38(58)41(61-15)60-14-28-32(52)34(54)37(57)43(66-28)64-26-12-19-23(62-40(26)17-8-22(48)30(50)25(9-17)59-2)10-18(45)11-24(19)63-42-36(56)33(53)31(51)27(13-44)65-42/h3-12,15,27-28,31-39,41-44,51-58H,13-14H2,1-2H3,(H4-,45,46,47,48,49,50)/p+1
Instrument: LTQ Orbitrap XL, Thermo Scientfic; Dionex Ultimate 300
Instrument type: LC-ESI-ITFT
Ms type: MS2
Ion mode: NEGATIVE
Ionization: ESI
Collision energy: 35eV
Column name: Lichrospher C18 Column 250*4 5um, Interchim
Retention time: 51.796 min
Base peak: 947.2455
Precursor m/z: 947.2455
Precursor type: [M-2H]-
m/z	relative intensity
947.1257	999
