Mass spectrum: Aspartame; ESI-TOF; MS2; CE: 0.6458333;  [M+H]+
Name: Aspartame
Class: NA
Formula: C14H18N2O5
Exact mass: 294.12157
SMILES: COC(=O)C(CC1=CC=CC=C1)NC(=O)C(N)CC(O)=O
InChI: InChI=1S/C14H18N2O5/c1-21-14(20)11(7-9-5-3-2-4-6-9)16-13(19)10(15)8-12(17)18/h2-6,10-11H,7-8,15H2,1H3,(H,16,19)(H,17,18)
Instrument: waters xevo g2 TOF
Instrument type: ESI-TOF
Ms type: MS2
Ion mode: POSITIVE
Ionization: ESI
Collision energy: 0.6458333
Column name: Acquity CSHC18
Retention time: 1.969 min
Base peak: 295.12957
Precursor m/z: 295.12957
Precursor type: [M+H]+
m/z	relative intensity
70.0296	42
77.0393	12
79.0559	1
88.0396	50
91.0546	296
93.0698	31
98.0238	13
99.0082	5
103.0546	192
104.0566	23
113.0236	1
113.964	6
115.0541	6
117.0697	9
118.0653	10
119.0728	12
120.081	999
121.0662	185
122.0686	11
127.0545	7
129.07	17
130.0656	156
131.0499	37
132.0526	5
135.081	15
136.0827	1
143.0742	1
144.0808	60
145.0658	16
146.0963	10
147.0916	34
148.0759	6
154.0654	48
155.0696	5
157.0647	54
158.0627	16
163.0753	49
164.0789	6
171.0444	2
172.0758	149
173.0784	20
175.0866	297
176.0887	39
180.1022	65
181.1053	20
182.0601	64
183.0644	19
186.0553	3
189.1024	36
190.0867	68
191.0893	8
200.0709	166
201.0741	23
202.0811	12
203.0815	6
210.0556	1
217.0972	52
218.0835	25
219.0864	2
227.0819	1
228.0659	13
235.108	105
236.1116	15
237.1126	1
242.0818	3
245.092	25
246.0932	4
260.092	39
261.0518	3
263.1031	5
277.1185	14
278.119	1
295.1292	29
296.1323	9
