Mass spectrum: METHYLTHIOADENOSINE; LC-ESI-QTOF; MS2; CE: 10;  [M-H]-
Name: METHYLTHIOADENOSINE
Class: NA
Formula: C11H15N5O3S
Exact mass: 297.08956
SMILES: CSC[C@H]1O[C@H]([C@H](O)[C@@H]1O)N1C=NC2=C1N=CN=C2N
InChI: InChI=1S/C11H15N5O3S/c1-20-2-5-7(17)8(18)11(19-5)16-4-15-6-9(12)13-3-14-10(6)16/h3-5,7-8,11,17-18H,2H2,1H3,(H2,12,13,14)/t5-,7-,8-,11-/m1/s1
Instrument: Agilent 6530Â Q-TOF LC/MS
Instrument type: LC-ESI-QTOF
Ms type: MS2
Ion mode: NEGATIVE
Ionization: ESI
Collision energy: 10
Column name: NA
Retention time: 0.200 min
Base peak: 296.08281
Precursor m/z: 296.08281
Precursor type: [M-H]-
Precursor intensity: 126
m/z	relative intensity
107.0346	116
134.0641	999
