Mass spectrum: 3-HYDROXYBENZOATE; LC-ESI-QFT; MS2; CE: 30eV;  [M+H]+
Name: 3-HYDROXYBENZOATE
Class: NA
Formula: C7H6O3
Exact mass: 138.03169
SMILES: OC(=O)C1=CC(O)=CC=C1
InChI: InChI=1S/C7H6O3/c8-6-3-1-2-5(4-6)7(9)10/h1-4,8H,(H,9,10)
Instrument: Q-Exactive Orbitrap, Thermo Scientfic; Ultimate 3000 HPLC, Thermo Scientfic
Instrument type: LC-ESI-QFT
Ms type: MS2
Ion mode: POSITIVE
Ionization: ESI
Collision energy: 30eV
Column name: Acquity CSHC18
Retention time: 4.228 min
Base peak: 139.0390
Precursor m/z: 139.0390
Precursor type: [M+H]+
Precursor intensity: 183
m/z	relative intensity
51.0236	2
52.3527	2
52.3557	2
54.9475	17
55.0185	2
65.0391	3
67.0548	9
69.0342	2
69.0705	10
69.2603	2
69.4075	2
70.9423	15
71.9064	2
71.9988	2
74.097	13
76.9402	2
77.0391	14
79.0548	2
81.0704	3
83.0496	13
84.8811	2
85.88	2
88.9527	18
93.0338	3
93.0703	18
95.0495	999
95.0859	10
95.7508	2
95.9737	3
95.9812	2
96.0529	34
97.0079	2
97.0653	2
98.956	2
105.045	64
108.1815	2
110.8957	2
111.0443	11
111.0806	3
111.9686	98
113.3152	2
116.9663	24
116.9721	13
121.0285	98
121.0397	3
121.1012	17
122.032	3
127.2473	2
129.9789	54
139.0389	117
139.0753	13
139.1117	21
139.9821	11
140.0422	2
140.0679	27
140.1434	2
159.4538	2
