Mass spectrum: cis-Aconitic acid; LC-ESI-ITFT; MS2; CE: 30;  [M-H]-
Name: cis-Aconitic acid
Class: Organic acids and derivatives; Carboxylic acids and derivatives; Tricarboxylic acids and derivatives
Formula: C6H6O6
Exact mass: 174.01644
SMILES: OC(=O)C\C(=C\C(O)=O)C(O)=O
InChI: InChI=1S/C6H6O6/c7-4(8)1-3(6(11)12)2-5(9)10/h1H,2H2,(H,7,8)(H,9,10)(H,11,12)/b3-1-
Instrument: Thermo Scientific Q-Exactive Focus
Instrument type: LC-ESI-ITFT
Ms type: MS2
Ion mode: NEGATIVE
Ionization: ESI
Collision energy: 30
Column name: Acquity CSHC18
Retention time: 0.926 min
Base peak: 173.00916
Precursor m/z: 173.00916
Precursor type: [M-H]-
m/z	relative intensity
51.7845	63
85.0283	999
94.4319	64
104.3473	61
111.0077	87
115.859	64
124.1907	70
165.9824	83
190.5137	64
193.7413	63
