Mass spectrum: Normetanephrine; ESI-TOF; MS2; CE: 0.6458333;  [M+H]+
Name: Normetanephrine
Class: NA
Formula: C9H13NO3
Exact mass: 183.08954
SMILES: COC1=CC(=CC=C1O)C(O)CN
InChI: InChI=1S/C9H13NO3/c1-13-9-4-6(8(12)5-10)2-3-7(9)11/h2-4,8,11-12H,5,10H2,1H3
Instrument: waters xevo g2 TOF
Instrument type: ESI-TOF
Ms type: MS2
Ion mode: POSITIVE
Ionization: ESI
Collision energy: 0.6458333
Column name: Acquity CSHC18
Retention time: 0.555 min
Base peak: 184.09754
Precursor m/z: 184.09754
Precursor type: [M+H]+
m/z	relative intensity
65.04	14
66.0461	1
67.0553	3
70.0298	4
77.0397	215
78.0464	71
79.0551	478
80.0567	47
81.0351	3
89.0396	28
90.045	3
91.0551	381
92.0581	35
93.0706	20
94.0664	34
95.0501	69
96.0497	4
97.9694	23
98.9633	1
99.9702	1
103.055	7
104.0507	9
105.0582	25
106.066	999
107.0503	158
108.054	22
109.0469	10
116.0503	103
117.0573	45
118.0653	28
119.0498	20
120.0638	17
121.1608	353
122.0684	152
123.0449	50
124.0523	66
125.0558	5
131.0507	6
132.0461	4
133.0531	67
134.1738	511
135.0659	276
136.0696	22
137.0606	84
138.0637	7
139.0757	6
146.0614	2
147.0682	1
148.0763	28
149.0605	456
150.0633	60
151.0636	127
152.0667	12
153.069	1
165.0791	4
166.089	287
167.0902	32
168.0923	2
178.0861	1
180.1024	1
