Mass spectrum: 3-AMINO-4-HYDROXYBENZOATE; LC-ESI-QFT; MS2; CE: 30eV;  [M+H]+
Name: 3-AMINO-4-HYDROXYBENZOATE
Class: NA
Formula: C7H7NO3
Exact mass: 153.04259
SMILES: C1=CC(=C(C=C1C(=O)O)N)O
InChI: InChI=1S/C7H7NO3/c8-5-3-4(7(10)11)1-2-6(5)9/h1-3,9H,8H2,(H,10,11)
Instrument: Q-Exactive Orbitrap, Thermo Scientfic; Ultimate 3000 HPLC, Thermo Scientfic
Instrument type: LC-ESI-QFT
Ms type: MS2
Ion mode: POSITIVE
Ionization: ESI
Collision energy: 30eV
Column name: Acquity CSHC18
Retention time: 0.734 min
Base peak: 154.0499
Precursor m/z: 154.0499
Precursor type: [M+H]+
Precursor intensity: 154
m/z	relative intensity
50.5196	3
51.9408	22
53.0394	8
53.2628	3
55.9352	39
60.6332	3
62.2472	3
62.2752	3
63.0217	4
63.0236	9
64.6296	3
65.0393	140
67.055	8
67.9356	6
68.0502	45
68.9434	31
69.0706	4
69.9511	4
70.1166	3
72.9378	5
80.0501	134
81.0341	7
81.0704	4
82.0657	51
83.9302	4
84.5125	3
85.946	18
90.0343	7
92.05	198
92.9672	8
93.034	135
93.0536	4
93.0704	8
95.0498	9
95.0861	7
95.4081	4
103.9565	6
106.0294	6
106.2773	4
107.0861	4
108.0449	403
109.0486	11
109.0526	65
109.0653	5
109.1016	26
110.0605	249
110.9775	8
111.0445	322
113.9405	8
113.9641	5
114.9718	141
118.0294	7
120.9585	4
121.0288	10
122.0323	5
123.887	4
124.0396	10
126.0553	35
126.3392	3
126.9725	31
128.9508	6
130.9823	36
131.9514	8
131.9746	5
131.987	82
136.0395	999
137.0429	39
144.9827	8
149.9618	39
153.0425	18
153.128	5
154.1227	5
154.6141	4
154.9075	8
155.0475	23
155.0533	699
155.1294	16
167.9722	8
