Mass spectrum: Trigalacturonic acid; LC-ESI-QTOF; MS2; CE: -10, -35, -60V;  [M-H]-
Name: Trigalacturonic acid
Class: NA
Formula: C18H26O19
Exact mass: 546.1068
SMILES: C1(C(C(OC(C1O)OC2C(C(C(OC2C(=O)O)OC3C(C(C(OC3C(=O)O)O)O)O)O)O)C(=O)O)O)O
InChI: InChI=1S/C18H26O19/c19-1-2(20)10(13(26)27)36-17(6(1)24)35-9-4(22)7(25)18(37-12(9)15(30)31)34-8-3(21)5(23)16(32)33-11(8)14(28)29/h1-12,16-25,32H,(H,26,27)(H,28,29)(H,30,31)
Instrument: TripleToF 5600; Sciex
Instrument type: LC-ESI-QTOF
Ms type: MS2
Ion mode: NEGATIVE
Ionization: ESI
Collision energy: -10, -35, -60V
Column name: Acquity CSHC18
Retention time: 13.325 min
Base peak: 545.1060
Precursor m/z: 545.1060
Precursor type: [M-H]-
Precursor intensity: 217182.4
m/z	relative intensity
71.0108	25
72.987	42
72.9943	42
73.0293	25
84.0203	2
85.0287	47
87.0082	44
89.0238	22
97.033	2
99.0134	6
101.0251	29
113.0199	74
113.0244	74
115.0035	74
129.0168	5
131.0368	44
157.0145	43
174.9935	9
175.0252	178
176.0276	12
193.0338	123
217.0384	7
229.0413	8
235.0383	57
235.0491	57
273.0255	20
291.0279	30
295.0731	2
300.2581	16
301.2471	3
309.049	50
351.0602	114
352.0554	18
353.0626	5
369.0668	234
370.0736	34
371.0736	7
411.0687	19
411.083	20
471.1008	4
485.0824	71
486.0902	12
543.063	21
543.4085	2
545.1078	999
