Mass spectrum: 5-cis Carbaprostacyclin; ESI-TOF; MS2; CE: 0.6458333;  [M+H]+
Name: 5-cis Carbaprostacyclin
Class: NA
Formula: C21H34O4
Exact mass: 350.24571
SMILES: CCCCCC(O)/C=C/[C@H]1C(O)CC2C\C(=C\CCCC(=O)O)\CC12
InChI: InChI=1S/C21H34O4/c1-2-3-4-8-17(22)10-11-18-19-13-15(7-5-6-9-21(24)25)12-16(19)14-20(18)23/h7,10-11,16-20,22-23H,2-6,8-9,12-14H2,1H3,(H,24,25)/b11-10+,15-7-/t16?,17?,18-,19?,20?/m1/s1
Instrument: waters xevo g2 TOF
Instrument type: ESI-TOF
Ms type: MS2
Ion mode: POSITIVE
Ionization: ESI
Collision energy: 0.6458333
Column name: Acquity CSHC18
Retention time: 4.529 min
Base peak: 351.25371
Precursor m/z: 351.25371
Precursor type: [M+H]+
m/z	relative intensity
67.0543	79
79.0547	203
81.0703	225
85.0645	22
91.0551	283
92.0576	18
93.0706	441
94.0718	11
95.0863	224
105.0708	391
106.0751	19
107.0871	225
109.1019	64
111.0813	10
115.0544	32
117.0709	543
118.0747	48
119.0865	347
121.1019	142
125.0973	65
128.0624	42
129.0684	298
131.0865	660
132.0907	70
133.1019	222
135.1179	86
137.1329	17
141.0691	64
143.0865	336
144.0897	39
145.1019	295
147.1179	97
149.1325	158
151.0137	22
154.0761	15
155.0867	119
157.0999	224
158.1048	32
159.117	110
161.0975	138
163.1106	24
165.091	43
167.0971	38
169.102	179
170.1022	24
171.1178	264
172.1203	36
173.1324	122
174.1364	16
175.1108	37
179.0713	69
180.1089	13
181.1006	78
183.1165	83
185.1323	162
187.0945	87
189.1451	34
191.067	11
195.1164	138
199.0679	83
201.1623	63
209.1329	45
213.1653	131
214.1646	15
215.1431	22
217.1423	55
219.1021	75
220.0721	12
223.0862	52
225.1625	19
227.0985	45
230.0407	10
231.1377	67
237.1638	25
241.1552	30
245.1517	61
251.1821	21
253.1972	46
259.1705	21
269.2284	38
276.0413	7
279.2121	120
280.2104	25
297.2213	206
313.2155	90
315.2321	999
316.2334	205
317.2396	39
321.2368	32
327.165	33
329.1722	8
331.2261	59
333.2425	17
337.2116	69
338.2081	14
339.252	15
353.1773	286
