Mass spectrum: 13,14-dihydro Prostaglandin E1; ESI-TOF; MS2; CE: 0.6458333;  [M+H]+
Name: 13,14-dihydro Prostaglandin E1
Class: NA
Formula: C20H36O5
Exact mass: 356.25627
SMILES: CCCCC[C@H](O)CC[C@H]1[C@H](O)CC(=O)[C@@H]1CCCCCCC(O)=O
InChI: InChI=1S/C20H36O5/c1-2-3-6-9-15(21)12-13-17-16(18(22)14-19(17)23)10-7-4-5-8-11-20(24)25/h15-17,19,21,23H,2-14H2,1H3,(H,24,25)/t15-,16+,17+,19+/m0/s1
Instrument: waters xevo g2 TOF
Instrument type: ESI-TOF
Ms type: MS2
Ion mode: POSITIVE
Ionization: ESI
Collision energy: 0.6458333
Column name: Acquity CSHC18
Retention time: 3.701 min
Base peak: 357.26427
Precursor m/z: 357.26427
Precursor type: [M+H]+
m/z	relative intensity
107.0873	315
135.1181	237
147.1179	256
159.1178	260
163.1113	65
175.1484	190
180.0979	10
191.1455	68
201.164	112
205.1582	10
257.2237	146
275.2324	92
286.2222	58
293.246	10
303.2325	999
304.2358	10
305.236	10
309.1999	10
310.0797	57
317.1399	66
321.1862	41
322.2471	10
323.2492	10
339.1717	10
340.2553	10
358.2264	10
358.728	10
359.1937	447
