Mass spectrum: 7-Methylthioheptyl isothiocyanate; LC-ESI-QTOF; MS2; CE: 15.00;  [M+H]+
Name: 7-Methylthioheptyl isothiocyanate
Class: NA
Formula: C9H17NS2
Exact mass: 203.0802
SMILES: CSCCCCCCCN=C=S
InChI: InChI=1S/C9H17NS2/c1-12-8-6-4-2-3-5-7-10-9-11/h2-8H2,1H3
Instrument: Bruker MicrOTOF-Q
Instrument type: LC-ESI-QTOF
Ms type: MS2
Ion mode: POSITIVE
Ionization: ESI
Collision energy: 15.00
Column name: Acquity CSHC18
Retention time: NA
Base peak: 204.0875
Precursor m/z: 204.0875
Precursor type: [M+H]+
m/z	relative intensity
95.07	36
97.01	23
98.09	30
100.02	26
101.03	43
102.04	51
108.08	341
109.08	21
112.03	25
112.11	84
113.04	30
114.04	242
115.04	42
122.1	210
123.1	999
124.11	89
127.05	25
129.08	30
135.02	27
139.06	26
145.1	24
156.08	611
158.01	28
158.08	56
203.05	30
254.49	39
