Mass spectrum: Ginkgolic acid C17:1; LC-ESI-QFT; MS2; CE: 15,30,45 (NCE);  [M+2Na-H]+
Name: Ginkgolic acid C17:1
Class: NA
Formula: C24H38O3
Exact mass: 374.2821
SMILES: CCCCCC\\C=C\\CCCCCCCCCC1=C(C(O)=O)C(O)=CC=C1
InChI: InChI=1S/C24H38O3/c1-2-3-4-5-6-7-8-9-10-11-12-13-14-15-16-18-21-19-17-20-22(25)23(21)24(26)27/h7-8,17,19-20,25H,2-6,9-16,18H2,1H3,(H,26,27)/b8-7+
Instrument: QE Focus, Thermo Scientfic; UPLC I-Class, Waters
Instrument type: LC-ESI-QFT
Ms type: MS2
Ion mode: POSITIVE
Ionization: ESI
Collision energy: 15,30,45 (NCE)
Column name: Acquity CSHC18
Retention time: 6.984 min
Base peak: 419.2535
Precursor m/z: 419.2535
Precursor type: [M+2Na-H]+
Precursor intensity: 1346364
m/z	relative intensity
59.6978	9
62.9825	46
65.1884	9
80.4001	11
101.4966	10
119.2339	10
121.658	9
136.2388	11
184.8505	10
191.4786	10
252.5473	11
375.2647	23
397.72	10
419.253	999
