Mass spectrum: Isopimpinellin; LC-ESI-ITFT; MS2; CE: 45eV;  [M+H]+
Name: Isopimpinellin
Class: coumarin
Formula: C13H10O5
Exact mass: 246.0528
SMILES: COC1=C2C=COC2=C(C3=C1C=CC(=O)O3)OC
InChI: InChI=1S/C13H10O5/c1-15-10-7-3-4-9(14)18-12(7)13(16-2)11-8(10)5-6-17-11/h3-6H,1-2H3
Instrument: LTQ Orbitrap XL, Thermo Scientfic; Dionex Ultimate 300
Instrument type: LC-ESI-ITFT
Ms type: MS2
Ion mode: POSITIVE
Ionization: ESI
Collision energy: 45eV
Column name: Alltima C18
Retention time: 18.71 min
Base peak: 247.0605
Precursor m/z: 247.0605
Precursor type: [M+H]+
m/z	relative intensity
90.9599	60
173.2759	69
176.1989	43
203.0878	999
214.9527	659
219.1215	565
