Mass spectrum: Phenylephrine; ESI-TOF; MS2; CE: 6.0000000;  [M+H]+
Name: Phenylephrine
Class: NA
Formula: C9H13NO2
Exact mass: 167.09463
SMILES: CNCC(O)C1=CC(O)=CC=C1
InChI: InChI=1S/C9H13NO2/c1-10-6-9(12)7-3-2-4-8(11)5-7/h2-5,9-12H,6H2,1H3
Instrument: waters xevo g2 TOF
Instrument type: ESI-TOF
Ms type: MS2
Ion mode: POSITIVE
Ionization: ESI
Collision energy: 6.0000000
Column name: Acquity CSHC18
Retention time: 0.575 min
Base peak: 168.10263
Precursor m/z: 168.10263
Precursor type: [M+H]+
m/z	relative intensity
81.0711	2
91.0552	13
96.962	27
102.1285	7
107.0501	1
110.0691	8
113.9646	12
117.0583	6
120.0473	8
121.0656	51
122.0976	14
132.0818	25
133.0872	2
134.0609	2
135.0689	132
136.0003	6
137.0679	6
137.9884	37
140.9632	1
147.2867	1
150.8494	169
152.9543	4
162.0922	46
163.0952	4
166.088	1
167.0938	4
168.1028	999
169.1061	107
