Mass spectrum: lanosterol; ESI-TOF; MS2; CE: 6.0000000;  [M+H]+
Name: lanosterol
Class: NA
Formula: C30H50O
Exact mass: 426.38617
SMILES: [H]OC2([H])(C([H])([H])C([H])([H])C1(C3=C(C([H])([H])C([H])([H])C1([H])C2(C([H])([H])[H])(C([H])([H])[H]))C4(C([H])([H])[H])(C([H])([H])C([H])([H])C([H])(C([H])(C([H])([H])[H])C([H])([H])C([H])([H])C([H])=C(C([H])([H])[H])C([H])([H])[H])C4(C([H])([H])[H])(C([H])([H])C3([H])([H]))))(C([H])([H])[H]))
InChI: InChI=1S/C30H50O/c1-20(2)10-9-11-21(3)22-14-18-30(8)24-12-13-25-27(4,5)26(31)16-17-28(25,6)23(24)15-19-29(22,30)7/h10,21-22,25-26,31H,9,11-19H2,1-8H3
Instrument: waters xevo g2 TOF
Instrument type: ESI-TOF
Ms type: MS2
Ion mode: POSITIVE
Ionization: ESI
Collision energy: 6.0000000
Column name: Acquity CSHC18
Retention time: 11.122 min
Base peak: 427.39417
Precursor m/z: 427.39417
Precursor type: [M+H]+
m/z	relative intensity
95.0855	6
109.1018	20
135.1172	12
149.1326	38
161.1319	3
163.1477	8
177.1651	6
189.1629	11
191.1797	342
192.1829	52
203.1799	65
205.195	169
206.198	18
217.1949	73
219.2109	14
243.2098	6
257.2261	10
299.2722	15
323.2239	11
323.2265	17
327.3068	11
409.3835	999
410.386	310
426.3857	65
427.3902	26
449.3749	24
450.3803	10
680.081	11
875.7558	9
876.7608	11
