Mass spectrum: Salutaridine; ESI-QTOF; MS2; CE: 1, 35, 60;  [M+H]+
Name: Salutaridine
Class: Benzylisoquinoline alkaloid
Formula: C19H21NO4
Exact mass: 327.1471
SMILES: CN1CCC23C=C(C(=O)C=C2C1CC4=C3C(=C(C=C4)OC)O)OC
InChI: InChI=1S/C19H21NO4/c1-20-7-6-19-10-16(24-3)14(21)9-12(19)13(20)8-11-4-5-15(23-2)18(22)17(11)19/h4-5,9-10,13,22H,6-8H2,1-3H3
Instrument: AB Sciex TripleToF 5500
Instrument type: ESI-QTOF
Ms type: MS2
Ion mode: POSITIVE
Ionization: ESI
Collision energy: 1, 35, 60
Column name: Acquity CSHC18
Retention time: 4.506 min
Base peak: 328.1513
Precursor m/z: 328.1513
Precursor type: [M+H]+
Precursor intensity: 240164.4
m/z	relative intensity
167.0734	133
192.0799	189
265.0836	275
267.0778	999
