Mass spectrum: Spermidine; LC-ESI-ITFT; MS2; CE: 40;  [M+H]+
Name: Spermidine
Class: Organic nitrogen compounds; Organonitrogen compounds; Amines
Formula: C7H19N3
Exact mass: 145.15790
SMILES: NCCCCNCCCN
InChI: InChI=1S/C7H19N3/c8-4-1-2-6-10-7-3-5-9/h10H,1-9H2
Instrument: Thermo Scientific Q-Exactive Focus
Instrument type: LC-ESI-ITFT
Ms type: MS2
Ion mode: POSITIVE
Ionization: ESI
Collision energy: 40
Column name: Acquity CSHC18
Retention time: 1.463 min
Base peak: 146.16518
Precursor m/z: 146.16518
Precursor type: [M+H]+
m/z	relative intensity
55.0548	170
56.05	14
58.0657	183
72.0813	999
84.0812	559
95.7072	14
102.1589	11
123.2017	12
124.3253	13
163.7625	12
