Mass spectrum: Allantoin; LC-ESI-ITFT; MS2; CE: 100;  [M+H]+
Name: Allantoin
Class: Organoheterocyclic compounds; Azoles; Imidazoles
Formula: C4H6N4O3
Exact mass: 158.04399
SMILES: NC(=O)NC1NC(=O)NC1=O
InChI: InChI=1S/C4H6N4O3/c5-3(10)6-1-2(9)8-4(11)7-1/h1H,(H3,5,6,10)(H2,7,8,9,11)
Instrument: Thermo Scientific Q-Exactive Focus
Instrument type: LC-ESI-ITFT
Ms type: MS2
Ion mode: POSITIVE
Ionization: ESI
Collision energy: 100
Column name: Acquity CSHC18
Retention time: 2.304 min
Base peak: 159.05127
Precursor m/z: 159.05127
Precursor type: [M+H]+
m/z	relative intensity
58.4891	933
64.8035	833
67.2024	852
88.4211	935
125.2948	903
133.5889	881
147.9681	884
153.5825	838
171.1421	892
171.3338	999
