Mass spectrum: Beta-Leucine; ESI-TOF; MS2; CE: 0.6458333;  [M+H]+
Name: Beta-Leucine
Class: NA
Formula: C6H13NO2
Exact mass: 131.09463
SMILES: CC(C)C(N)CC(O)=O
InChI: InChI=1S/C6H13NO2/c1-4(2)5(7)3-6(8)9/h4-5H,3,7H2,1-2H3,(H,8,9)
Instrument: waters xevo g2 TOF
Instrument type: ESI-TOF
Ms type: MS2
Ion mode: POSITIVE
Ionization: ESI
Collision energy: 0.6458333
Column name: Acquity CSHC18
Retention time: 0.565 min
Base peak: 132.10263
Precursor m/z: 132.10263
Precursor type: [M+H]+
m/z	relative intensity
69.0711	899
72.0819	999
73.0757	384
97.0657	5
98.9631	5
101.9407	300
101.9413	221
115.076	106
116.0795	5
119.9757	5
129.8798	52
129.9544	5
132.1027	352
133.106	5
134.1082	5
138.1133	5
140.9609	5
146.1184	5
146.9577	5
151.9227	127
154.0842	150
163.9766	5
172.9779	5
176.0668	154
187.9646	5
201.9786	5
213.8869	27
217.1012	5
217.8588	106
229.0595	160
239.8875	5
262.8604	5
273.0539	204
274.0637	39
295.0363	368
301.1462	5
317.1187	111
339.0998	35
362.1139	5
447.2006	5
447.204	5
448.1076	82
448.2052	5
469.1835	5
491.1704	60
622.2615	5
623.2659	5
787.2759	5
