Mass spectrum: Prostaglandin D2-1-glyceryl ester; ESI-TOF; MS2; CE: 6.0000000;  [M+H]+
Name: Prostaglandin D2-1-glyceryl ester
Class: NA
Formula: C23H38O7
Exact mass: 426.26175
SMILES: CCCCC[C@@H](O)\C=C\[C@@H]1[C@@H](C\C=C/CCCC(=O)OCC(O)CO)[C@@H](O)CC1=O
InChI: InChI=1S/C23H38O7/c1-2-3-6-9-17(25)12-13-20-19(21(27)14-22(20)28)10-7-4-5-8-11-23(29)30-16-18(26)15-24/h4,7,12-13,17-21,24-27H,2-3,5-6,8-11,14-16H2,1H3/b7-4-,13-12+/t17-,18?,19-,20-,21+/m1/s1
Instrument: waters xevo g2 TOF
Instrument type: ESI-TOF
Ms type: MS2
Ion mode: POSITIVE
Ionization: ESI
Collision energy: 6.0000000
Column name: Acquity CSHC18
Retention time: 3.415 min
Base peak: 427.26975
Precursor m/z: 427.26975
Precursor type: [M+H]+
m/z	relative intensity
132.9587	56
180.1358	24
189.1279	34
191.1449	32
202.1109	25
203.1026	184
215.1027	16
224.1067	981
224.6089	228
225.1168	37
233.1112	86
245.1132	19
257.1903	40
271.2097	58
299.1995	719
300.2038	116
307.1844	29
317.211	992
318.2141	191
336.0645	18
354.0735	48
373.2377	153
374.2375	393
391.2482	999
392.2506	248
393.255	40
394.256	27
409.2577	61
410.2622	153
411.2609	24
