Mass spectrum: Prostaglandin E2; ESI-TOF; MS2; CE: 0.6458333;  [M+H]+
Name: Prostaglandin E2
Class: NA
Formula: C20H32O5
Exact mass: 352.22497
SMILES: CCCCCC(C=CC1C(CC(=O)C1CC=CCCCC(=O)O)O)O
InChI: InChI=1S/C20H32O5/c1-2-3-6-9-15(21)12-13-17-16(18(22)14-19(17)23)10-7-4-5-8-11-20(24)25/h4,7,12-13,15-17,19,21,23H,2-3,5-6,8-11,14H2,1H3,(H,24,25)
Instrument: waters xevo g2 TOF
Instrument type: ESI-TOF
Ms type: MS2
Ion mode: POSITIVE
Ionization: ESI
Collision energy: 0.6458333
Column name: Acquity CSHC18
Retention time: 3.581 min
Base peak: 353.23297
Precursor m/z: 353.23297
Precursor type: [M+H]+
m/z	relative intensity
79.0552	339
95.0864	292
97.065	104
105.0714	866
107.087	341
121.1018	297
131.087	999
133.1014	420
145.101	585
147.0821	409
170.1067	80
173.1328	261
183.1159	462
185.0968	321
187.1118	200
191.1418	58
201.1277	248
211.1092	225
215.1439	459
221.0525	82
227.179	149
229.1222	75
253.1959	132
271.2059	221
273.1846	116
281.19	644
282.193	98
299.2015	962
300.2045	180
303.165	665
317.2111	421
319.1336	131
329.179	69
