Mass spectrum: (+-)-nerolidol; LC-ESI-QTOF; MS2; CE: 0.00;  [M-H2O+H]+
Name: (+-)-nerolidol
Class: NA
Formula: C15H26O
Exact mass: 222.1984
SMILES: CC(=CCCC(=CCCC(C)(C=C)O)C)C
InChI: InChI=1S/C15H26O/c1-6-15(5,16)12-8-11-14(4)10-7-9-13(2)3/h6,9,11,16H,1,7-8,10,12H2,2-5H3
Instrument: Bruker MicrOTOF-Q
Instrument type: LC-ESI-QTOF
Ms type: MS2
Ion mode: POSITIVE
Ionization: ESI
Collision energy: 0.00
Column name: Acquity CSHC18
Retention time: NA
Base peak: 205.1951
Precursor m/z: 205.1951
Precursor type: [M-H2O+H]+
m/z	relative intensity
105.0633	4
107.0827	8
109.103	9
119.0821	18
120.0896	5
121.0991	440
122.1024	58
123.1154	130
124.1183	12
124.5027	3
124.7195	1
133.094	3
135.115	427
136.119	30
137.1305	33
138.138	5
147.1159	14
148.1175	4
149.1318	999
150.1347	115
151.1416	2
161.1332	7
162.14	9
163.1476	150
164.1524	20
176.1533	5
177.1634	19
178.1638	2
203.1819	2
204.9819	4
205.1948	851
206.1984	124
