Mass spectrum: (3S,5S,8R,9S,10S,13S,14S,17S)-17-((R)-1-hydroxy-1-((2R,5R)-5-methylpiperidin-2-yl)ethyl)-10,13-dimethylhexadecahydro-1H-cyclopenta[a]phenanthren-3-yl acetate; APCI-ITFT; MS2; CE: 70 HCD;  [M+H]+
Name: (3S,5S,8R,9S,10S,13S,14S,17S)-17-((R)-1-hydroxy-1-((2R,5R)-5-methylpiperidin-2-yl)ethyl)-10,13-dimethylhexadecahydro-1H-cyclopenta[a]phenanthren-3-yl acetate
Class: NA
Formula: C29H49NO3
Exact mass: 459.37124
SMILES: C[C@@H](CN1)CC[C@@H]1[C@](C)(O)[C@H]2CC[C@@]3([H])[C@]4([H])CC[C@@]5([H])C[C@@H](OC(C)=O)CC[C@]5(C)[C@@]4([H])CC[C@]23C
InChI: InChI=1S/C29H49NO3/c1-18-6-11-26(30-17-18)29(5,32)25-10-9-23-22-8-7-20-16-21(33-19(2)31)12-14-27(20,3)24(22)13-15-28(23,25)4/h18,20-26,30,32H,6-17H2,1-5H3/t18-,20+,21+,22+,23+,24+,25+,26-,27+,28+,29-/m1/s1
Instrument: Orbitrap Elite
Instrument type: APCI-ITFT
Ms type: MS2
Ion mode: POSITIVE
Ionization: APCI
Collision energy: 70 HCD
Column name: Acquity CSHC18
Retention time: 0.062 min
Base peak: 460.37830
Precursor m/z: 460.37830
Precursor type: [M+H]+
Precursor intensity: 2873895000
m/z	relative intensity
64.2176	4
77.0386	50
79.0542	300
81.0699	373
82.0651	12
83.0856	27
84.0808	48
90.2491	5
91.0543	258
93.07	317
95.0486	29
95.0852	232
96.081	27
98.0874	14
98.0964	999
103.0546	5
105.0444	54
105.0701	215
107.0857	342
109.1013	118
110.0968	16
111.1046	8
112.1119	24
115.0556	4
117.0694	19
119.0609	5
119.0852	113
121.1011	109
123.116	19
124.1122	23
125.1201	19
126.1279	218
128.0632	5
129.0694	13
131.0855	40
133.1009	83
135.1171	54
136.1118	5
138.1278	23
143.0855	15
145.1015	53
147.117	89
149.1325	63
150.1285	19
151.1053	5
152.1432	56
157.101	10
159.1175	46
161.1331	145
163.1479	39
166.159	15
168.0416	4
171.1166	10
173.1326	23
175.1478	11
178.4004	4
185.1317	10
187.1497	16
189.1652	8
199.1487	10
201.1639	15
212.6549	5
213.1652	5
216.4885	4
255.2124	5
270.8081	5
338.8595	4
382.3484	224
402.1711	4
442.3662	48
460.3811	15
