Mass spectrum: 2-PHOSPHOGLYCERATE; LC-ESI-QTOF; MS2; CE: 10;  [M-H]-
Name: 2-PHOSPHOGLYCERATE
Class: NA
Formula: C3H7O7P
Exact mass: 185.99294
SMILES: OCC(OP(O)(O)=O)C(O)=O
InChI: InChI=1S/C3H7O7P/c4-1-2(3(5)6)10-11(7,8)9/h2,4H,1H2,(H,5,6)(H2,7,8,9)
Instrument: Agilent 6530Â Q-TOF LC/MS
Instrument type: LC-ESI-QTOF
Ms type: MS2
Ion mode: NEGATIVE
Ionization: ESI
Collision energy: 10
Column name: NA
Retention time: 0.200 min
Base peak: 184.98843
Precursor m/z: 184.98843
Precursor type: [M-H]-
Precursor intensity: 151
m/z	relative intensity
78.9738	120
96.9741	304
184.9865	999
