Mass spectrum: HISTIDINE; LC-ESI-QTOF; MS2; CE: 40;  [M-H]-
Name: HISTIDINE
Class: NA
Formula: C6H9N3O2
Exact mass: 155.06948
SMILES: N[C@@H](CC1=CNC=N1)C(O)=O
InChI: InChI=1S/C6H9N3O2/c7-5(6(10)11)1-4-2-8-3-9-4/h2-3,5H,1,7H2,(H,8,9)(H,10,11)/t5-/m0/s1
Instrument: Agilent 6530Â Q-TOF LC/MS
Instrument type: LC-ESI-QTOF
Ms type: MS2
Ion mode: NEGATIVE
Ionization: ESI
Collision energy: 40
Column name: NA
Retention time: 0.200 min
Base peak: 154.06339
Precursor m/z: 154.06339
Precursor type: [M-H]-
Precursor intensity: 151
m/z	relative intensity
40.0268	176
52.0264	247
65.0223	286
66.0389	319
67.047	332
80.0366	360
81.053	450
93.052	999
