Mass spectrum: N-ACETYLMETHIONINE; LC-ESI-QTOF; MS2; CE: 40;  [M-H]-
Name: N-ACETYLMETHIONINE
Class: NA
Formula: C7H13NO3S
Exact mass: 191.06161
SMILES: CC(=O)NC(CCSC)C(=O)O
InChI: InChI=1S/C7H13NO3S/c1-5(9)8-6(7(10)11)3-4-12-2/h6H,3-4H2,1-2H3,(H,8,9)(H,10,11)
Instrument: Agilent 6530Â Q-TOF LC/MS
Instrument type: LC-ESI-QTOF
Ms type: MS2
Ion mode: NEGATIVE
Ionization: ESI
Collision energy: 40
Column name: NA
Retention time: 0.200 min
Base peak: 190.05065
Precursor m/z: 190.05065
Precursor type: [M-H]-
Precursor intensity: 116
m/z	relative intensity
47.0111	999
