Mass spectrum: 11-beta-Prostaglandin E2; ESI-TOF; MS2; CE: 6.0000000;  [M+H]+
Name: 11-beta-Prostaglandin E2
Class: NA
Formula: C20H32O5
Exact mass: 352.22497
SMILES: O=C1[C@H](C/C=C\CCCC(O)=O)[C@@H](/C=C/[C@@H](O)CCCCC)[C@@H](O)C1
InChI: InChI=1S/C20H32O5/c1-2-3-6-9-15(21)12-13-17-16(18(22)14-19(17)23)10-7-4-5-8-11-20(24)25/h4,7,12-13,15-17,19,21,23H,2-3,5-6,8-11,14H2,1H3,(H,24,25)/b7-4-,13-12+/t15-,16+,17+,19-/m0/s1
Instrument: waters xevo g2 TOF
Instrument type: ESI-TOF
Ms type: MS2
Ion mode: POSITIVE
Ionization: ESI
Collision energy: 6.0000000
Column name: Acquity CSHC18
Retention time: 3.609 min
Base peak: 353.23297
Precursor m/z: 353.23297
Precursor type: [M+H]+
m/z	relative intensity
79.0545	1
81.07	1
91.0549	1
93.0703	1
105.0704	1
107.0492	1
109.1004	1
117.0712	1
121.066	1
129.071	1
131.0862	5
132.0876	1
133.0661	1
135.0812	1
141.0692	1
142.0761	1
143.0847	1
145.1	1
147.1169	1
149.0593	1
155.0863	1
157.1023	1
159.0804	1
161.1324	5
167.0711	43
169.1001	1
170.1048	1
171.1158	1
173.0963	7
181.1015	1
183.1174	1
185.0999	3
189.0905	39
191.1413	8
201.1255	16
206.0019	1
207.1014	60
215.1428	33
225.1267	1
227.1784	19
229.1573	13
233.1514	14
239.1809	1
245.189	39
246.1928	8
247.2068	33
255.1746	16
257.189	36
262.0612	1
263.1879	75
264.1998	9
266.2154	8
271.2031	76
273.1852	46
275.1992	19
281.1892	141
282.1972	18
289.2134	56
291.1944	37
299.2004	859
300.2057	172
303.1595	1
317.2109	999
318.17	100
319.2177	23
331.2234	6
335.2219	374
336.2258	76
337.2284	7
354.1949	138
354.6954	64
355.1745	7
