Mass spectrum: 4,4' -Sulfonyldiphenol; ESI-TOF; MS2; CE: 0.6458333;  [M+H]+
Name: 4,4' -Sulfonyldiphenol
Class: NA
Formula: C12H10O4S
Exact mass: 250.02998
SMILES: C1=CC(=CC=C1O)S(=O)(=O)C2=CC=C(C=C2)O
InChI: InChI=1S/C12H10O4S/c13-9-1-5-11(6-2-9)17(15,16)12-7-3-10(14)4-8-12/h1-8,13-14H
Instrument: waters xevo g2 TOF
Instrument type: ESI-TOF
Ms type: MS2
Ion mode: POSITIVE
Ionization: ESI
Collision energy: 0.6458333
Column name: Acquity CSHC18
Retention time: 2.194 min
Base peak: 251.03798
Precursor m/z: 251.03798
Precursor type: [M+H]+
m/z	relative intensity
65.0392	91
93.0341	999
94.0378	89
109.0288	407
110.0352	84
112.0488	14
132.9955	20
140.9989	94
142.0083	38
154.0013	35
156.9957	898
157.9988	45
158.994	52
160.9993	13
163.0074	26
170.003	9
186.046	59
187.0717	13
196.9583	138
199.5093	16
242.0027	73
242.9996	40
250.0305	34
251.0378	279
252.0404	35
253.0376	15
270.0112	748
270.5128	216
271.0113	113
271.5133	26
274.0213	18
275.0189	10
277.0027	16
277.4996	15
277.9971	216
278.499	68
279.0004	97
279.5008	24
279.9951	31
288.992	9
304.9574	45
305.966	66
306.9716	150
307.9687	27
308.9685	13
322.9653	40
334.9889	46
335.974	17
336.9808	17
350.9604	49
352.9633	6
381.9803	6
395.0255	130
395.5281	55
396.0266	28
398.9981	50
402.5104	2
403.0122	37
403.514	16
404.0127	18
421.9851	16
523.0514	22
