Mass spectrum: oxyresveratrol; LC-ESI-ITFT; MS2; CE: 0.3;  [M+H]+
Name: oxyresveratrol
Class: stilbenoids
Formula: C14H12O4
Exact mass: 244.0736
SMILES: C1=CC(=C(C=C1O)O)C=CC2=CC(=CC(=C2)O)O
InChI: InChI=1S/C14H12O4/c15-11-4-3-10(14(18)8-11)2-1-9-5-12(16)7-13(17)6-9/h1-8,15-18H
Instrument: LTQ-Orbitrap XL hybrid mass spectrometer (Thermo Scientific)
Instrument type: LC-ESI-ITFT
Ms type: MS2
Ion mode: POSITIVE
Ionization: ESI
Collision energy: 0.3
Column name: Acquity CSHC18
Retention time: 5.734 min
Base peak: 245.0798
Precursor m/z: 245.0798
Precursor type: [M+H]+
Precursor intensity: 4410958
m/z	relative intensity
55.3587	3
58.9176	3
59.6164	4
61.4218	4
61.6146	4
63.1033	3
66.9094	3
71.231	5
71.9041	3
72.3804	4
77.6203	4
88.0837	3
89.479	4
89.7899	4
92.1281	4
97.0068	4
102.2519	4
102.3481	4
102.882	3
107.0485	13
111.0429	9
117.3957	4
117.6023	4
119.9387	4
122.9078	3
124.0367	4
126.6771	4
132.9513	5
135.0433	135
136.5076	4
141.9855	5
142.0683	5
152.1078	5
153.757	4
154.6342	5
157.064	23
159.5873	5
161.059	69
161.5577	4
163.0379	15
165.0921	5
165.3014	4
165.445	5
166.9527	6
168.087	4
168.9181	6
169.3401	5
171.143	4
172.1202	5
173.0608	6
175.0722	8
181.0641	32
183.809	6
185.0583	8
185.376	5
189.1866	6
191.0917	6
192.2902	5
195.5187	4
195.6231	6
199.0746	97
200.5277	5
203.0694	77
203.3976	5
204.4731	6
204.8083	5
206.0413	5
207.4005	5
207.927	6
209.0591	68
211.4925	5
211.761	5
216.8244	5
217.0856	26
221.5769	5
222.8852	5
224.5488	6
225.6155	5
226.3357	5
226.4557	6
226.7038	6
227.0696	999
228.3225	7
229.2663	6
231.3441	5
231.9368	5
232.8088	5
238.4315	5
240.513	6
243.4222	6
245.5568	5
