Mass spectrum: 13,14-dihydro-15-keto Prostaglandin E2; ESI-TOF; MS2; CE: 0.6458333;  [M+H]+
Name: 13,14-dihydro-15-keto Prostaglandin E2
Class: NA
Formula: C20H32O5
Exact mass: 352.22497
SMILES: CCCCCC(=O)CC[C@H]1[C@H](O)CC(=O)[C@@H]1C\C=C/CCCC(O)=O
InChI: InChI=1S/C20H32O5/c1-2-3-6-9-15(21)12-13-17-16(18(22)14-19(17)23)10-7-4-5-8-11-20(24)25/h4,7,16-17,19,23H,2-3,5-6,8-14H2,1H3,(H,24,25)/b7-4-/t16-,17-,19-/m1/s1
Instrument: waters xevo g2 TOF
Instrument type: ESI-TOF
Ms type: MS2
Ion mode: POSITIVE
Ionization: ESI
Collision energy: 0.6458333
Column name: Acquity CSHC18
Retention time: 3.533 min
Base peak: 353.23297
Precursor m/z: 353.23297
Precursor type: [M+H]+
m/z	relative intensity
71.085	251
79.0548	107
81.0697	185
93.0715	108
99.081	427
105.0703	8
107.049	100
109.0654	163
117.071	254
119.0865	252
129.0694	273
131.0859	313
133.0655	171
135.0808	118
141.0706	133
143.0865	242
145.0649	111
147.0815	152
155.0859	230
157.1014	291
161.0959	157
167.0718	355
168.0932	76
169.1029	228
171.1168	59
173.0958	167
174.0998	8
175.1114	169
183.1175	345
185.0547	726
186.1002	180
187.0996	87
187.5897	8
191.1424	72
193.0994	84
196.0938	8
197.098	99
201.1272	360
203.1063	353
205.0961	8
209.1518	8
219.1361	128
225.1289	50
229.1222	44
233.1543	151
247.0635	196
253.1946	8
257.1904	8
259.0626	68
261.0549	54
263.1763	110
265.0729	137
271.2042	163
277.0746	153
279.0691	98
280.0709	71
281.1899	466
282.1953	73
289.2169	8
290.216	8
299.2004	999
300.2035	183
317.165	468
318.2141	8
319.2149	8
335.2211	51
336.2251	8
337.2286	8
349.2392	8
353.2313	8
354.1993	8
