Mass spectrum: Pyrocatechol; LC-ESI-ITFT; MS2; CE: 10;  [M-H]-
Name: Pyrocatechol
Class: Benzenoids; Phenols; Benzenediols
Formula: C6H6O2
Exact mass: 110.03678
SMILES: OC1=CC=CC=C1O
InChI: InChI=1S/C6H6O2/c7-5-3-1-2-4-6(5)8/h1-4,7-8H
Instrument: Thermo Scientific Q-Exactive Focus
Instrument type: LC-ESI-ITFT
Ms type: MS2
Ion mode: NEGATIVE
Ionization: ESI
Collision energy: 10
Column name: Acquity CSHC18
Retention time: NA
Base peak: 109.02950
Precursor m/z: 109.02950
Precursor type: [M-H]-
m/z	relative intensity
81.0334	11
91.0177	8
108.0205	43
109.0283	999
