Mass spectrum: 5-HYDROXYINDOLEACETATE; LC-ESI-QTOF; MS2; CE: 10;  [M-H]-
Name: 5-HYDROXYINDOLEACETATE
Class: NA
Formula: C10H9NO3
Exact mass: 191.05824
SMILES: OC(=O)CC1=CNC2=CC=C(O)C=C12
InChI: InChI=1S/C10H9NO3/c12-7-1-2-9-8(4-7)6(5-11-9)3-10(13)14/h1-2,4-5,11-12H,3H2,(H,13,14)
Instrument: Agilent 6530Â Q-TOF LC/MS
Instrument type: LC-ESI-QTOF
Ms type: MS2
Ion mode: NEGATIVE
Ionization: ESI
Collision energy: 10
Column name: NA
Retention time: 0.200 min
Base peak: 190.04886
Precursor m/z: 190.04886
Precursor type: [M-H]-
Precursor intensity: 172
m/z	relative intensity
116.0528	140
144.0679	230
146.0813	696
190.041	999
