Mass spectrum: 8-prenyl naringenin; LC-ESI-ITFT; MS2; CE: 0.3;  [M-H]-
Name: 8-prenyl naringenin
Class: flavanones
Formula: C20H20O5
Exact mass: 340.1311
SMILES: CC(=CCC1=C2C(=C(C=C1O)O)C(=O)CC(O2)C3=CC=C(C=C3)O)C
InChI: InChI=1S/C20H20O5/c1-11(2)3-8-14-15(22)9-16(23)19-17(24)10-18(25-20(14)19)12-4-6-13(21)7-5-12/h3-7,9,18,21-23H,8,10H2,1-2H3
Instrument: LTQ-Orbitrap XL hybrid mass spectrometer (Thermo Scientific)
Instrument type: LC-ESI-ITFT
Ms type: MS2
Ion mode: NEGATIVE
Ionization: ESI
Collision energy: 0.3
Column name: Acquity CSHC18
Retention time: 11.968 min
Base peak: 339.1233
Precursor m/z: 339.1233
Precursor type: [M-H]-
Precursor intensity: 142374000
m/z	relative intensity
88.7542	1
92.6888	1
96.5347	1
119.0508	25
133.0663	17
150.374	1
151.0768	14
161.0826	1
167.7781	2
173.319	1
175.0767	45
176.0117	17
177.0197	3
191.0718	2
193.0871	25
196.1521	5
217.1974	3
217.6625	7
218.1286	5
218.1377	2
218.3155	3
219.0068	1
219.0282	1
219.0311	1
219.0355	3
219.0398	2
219.0432	3
219.0482	4
219.053	7
219.0578	7
219.0664	999
219.0774	7
219.0822	6
219.087	5
219.0913	2
219.0943	3
219.0991	2
219.102	1
219.1114	1
219.1144	1
219.8213	3
220.0008	1
220.01	5
220.0691	2
220.4837	6
220.9597	3
233.0819	73
245.0819	100
287.1444	1
287.1482	1
287.1686	4
287.1747	5
287.1822	4
295.1338	14
297.1133	2
321.1134	1
323.8028	2
337.4153	2
339.1235	167
