Mass spectrum: (S)-AL 8810; ESI-TOF; MS2; CE: 0.6458333;  [M+H]+
Name: (S)-AL 8810
Class: NA
Formula: C24H31FO4
Exact mass: 402.22064
SMILES: O[C@@H]1[C@H](C/C=C\CCCC(O)=O)[C@@H](/C=C/[C@@H](O)C2CC(C=CC=C3)=C3C2)[C@@H](F)C1
InChI: InChI=1S/C24H31FO4/c25-21-15-23(27)20(9-3-1-2-4-10-24(28)29)19(21)11-12-22(26)18-13-16-7-5-6-8-17(16)14-18/h1,3,5-8,11-12,18-23,26-27H,2,4,9-10,13-15H2,(H,28,29)/b3-1-,12-11+/t19-,20-,21+,22-,23+/m1/s1
Instrument: waters xevo g2 TOF
Instrument type: ESI-TOF
Ms type: MS2
Ion mode: POSITIVE
Ionization: ESI
Collision energy: 0.6458333
Column name: Acquity CSHC18
Retention time: 3.821 min
Base peak: 403.22864
Precursor m/z: 403.22864
Precursor type: [M+H]+
m/z	relative intensity
67.0535	19
79.0531	24
91.0553	148
93.0702	36
95.0866	34
105.071	95
107.0866	17
115.055	72
117.0708	360
119.0879	82
123.0808	17
127.0551	39
128.0625	203
129.0714	999
130.0755	117
131.0864	373
132.0905	23
141.0721	282
142.0777	81
143.0866	528
144.0913	43
145.1025	180
149.0946	19
153.0692	70
154.0772	41
155.0867	424
156.0912	67
157.1015	338
159.1177	65
166.0782	69
167.0842	236
168.0904	25
169.1027	273
171.1181	417
172.1208	51
178.0807	27
179.0876	176
180.0916	57
181.0991	204
182.104	17
183.1174	48
185.0962	136
187.1131	157
191.087	113
193.0906	45
193.5802	3
195.1176	207
197.0967	41
199.0794	103
201.1266	3
202.0824	3
204.0929	30
205.1215	79
206.1163	26
211.0888	3
213.1277	360
214.1298	43
215.1071	3
217.1225	97
218.1179	24
219.1168	322
221.1286	3
227.1071	20
229.1095	29
231.1368	204
232.1422	3
233.133	75
237.1254	3
243.1147	47
246.1353	17
249.1359	15
250.1526	3
251.1426	3
265.1227	49
267.1368	20
269.1316	64
283.1456	53
285.1634	50
287.181	37
311.179	217
312.1824	47
317.2092	3
321.1877	3
327.1707	13
329.191	270
330.1931	51
331.1888	26
335.2223	3
336.2273	3
337.2326	3
340.0773	3
345.185	38
346.1822	3
347.2012	594
348.2059	152
349.2015	3
350.1975	3
357.204	216
358.2045	35
363.1944	3
365.2093	54
366.2118	8
367.1719	76
368.2103	15
371.2388	3
373.1716	18
383.2005	9
384.2055	3
385.1847	79
386.185	20
387.1897	206
388.1904	42
389.1395	19
400.1147	96
401.1236	3
402.1826	26
403.1559	153
405.2005	343
