Mass spectrum: N-ACETYLGLUTAMATE; LC-ESI-QTOF; MS2; CE: 40;  [M-H]-
Name: N-ACETYLGLUTAMATE
Class: NA
Formula: C7H11NO5
Exact mass: 189.06372
SMILES: CC(=O)NC(CCC(O)=O)C(O)=O
InChI: InChI=1S/C7H11NO5/c1-4(9)8-5(7(12)13)2-3-6(10)11/h5H,2-3H2,1H3,(H,8,9)(H,10,11)(H,12,13)
Instrument: Agilent 6530Â Q-TOF LC/MS
Instrument type: LC-ESI-QTOF
Ms type: MS2
Ion mode: NEGATIVE
Ionization: ESI
Collision energy: 40
Column name: NA
Retention time: 0.200 min
Base peak: 188.05394
Precursor m/z: 188.05394
Precursor type: [M-H]-
Precursor intensity: 154
m/z	relative intensity
41.0142	119
42.0099	127
52.0204	128
54.0436	232
57.0327	246
58.0397	418
59.0246	483
74.0262	501
84.0387	607
102.0644	926
128.0349	999
