Mass spectrum: Raphanusamic Acid; LC-ESI-QTOF; MS2; CE: 15.00;  [M-H]-
Name: Raphanusamic Acid
Class: NA
Formula: C4H5NO2S2
Exact mass: 162.9762
SMILES: C1C(NC(=S)S1)C(=O)O
InChI: InChI=1S/C4H5NO2S2/c6-3(7)2-1-9-4(8)5-2/h2H,1H2,(H,5,8)(H,6,7)
Instrument: Bruker MicrOTOF-Q
Instrument type: LC-ESI-QTOF
Ms type: MS2
Ion mode: NEGATIVE
Ionization: ESI
Collision energy: 15.00
Column name: Acquity CSHC18
Retention time: NA
Base peak: 161.9689
Precursor m/z: 161.9689
Precursor type: [M-H]-
m/z	relative intensity
52.5113	523
62.0076	499
71.7873	499
80.0119	618
83.609	642
113.9344	784
122.6491	999
134.2723	570
134.4986	475
136.9469	570
143.8922	713
174.3584	475
187.229	523
205.7811	808
244.8905	737
286.8451	547
292.9343	713
331.5331	523
361.2774	737
362.8345	570
418.1023	761
530.1656	713
554.7821	689
652.3524	570
806.4999	689
811.6306	570
834.7875	547
895.7695	570
927.4633	927
