Mass spectrum: 11-hydroxy-9,10-dihydrojasmonic acid 11-beta-D-glucoside; LC-ESI-QTOF; MS2; CE: 20-40eV;  [M+NH4]+
Name: 11-hydroxy-9,10-dihydrojasmonic acid 11-beta-D-glucoside
Class: O-glycoside coumpond
Formula: C18H30O9
Exact mass: 390.1890
SMILES: CC(CCCC1(C(CCC1=O)(CC(=O)O)[H])[H])(OC2(C(C(C(C(CO)(O2)[H])(O)[H])(O)[H])(O)[H])[H])[H]
InChI: InChI=1S/C18H30O9/c1-9(26-18-17(25)16(24)15(23)13(8-19)27-18)3-2-4-11-10(7-14(21)22)5-6-12(11)20/h9-11,13,15-19,23-25H,2-8H2,1H3,(H,21,22)
Instrument: Impact II, Bruker; Dionex 3000, Thermo Scientific
Instrument type: LC-ESI-QTOF
Ms type: MS2
Ion mode: POSITIVE
Ionization: ESI
Collision energy: 20-40eV
Column name: Acquity CSHC18
Retention time: 4.032 min
Base peak: 408.2244
Precursor m/z: 408.2244
Precursor type: [M+NH4]+
Precursor intensity: 20608
m/z	relative intensity
95.0669	8
97.0458	11
109.0636	13
121.0827	15
127.0556	16
137.0758	17
145.037	17
151.0931	23
191.1253	24
192.1298	41
193.1032	45
209.1142	46
211.113	115
212.1566	117
331.1079	179
407.1606	999
