Mass spectrum: Kaempferol-3-O-glucorhamnoside; LC-ESI-QTOF; MS2; CE: 50eV;  [M+H]+
Name: Kaempferol-3-O-glucorhamnoside
Class: Flavonol
Formula: C27H30O15
Exact mass: 594.1585
SMILES: CC1C(C(C(C(O1)OC2C(C(C(OC2OC3=C(OC4=CC(=CC(=C4C3=O)O)O)C5=CC=C(C=C5)O)CO)O)O)O)O)O
InChI: InChI=1S/C27H30O15/c1-9-17(32)20(35)22(37)26(38-9)42-25-21(36)18(33)15(8-28)40-27(25)41-24-19(34)16-13(31)6-12(30)7-14(16)39-23(24)10-2-4-11(29)5-3-10/h2-7,9,15,17-18,20-22,25-33,35-37H,8H2,1H3
Instrument: TIMS-TOF Pro, Bruker Daltonik; Elute UHPLC System, Bruker Daltonik
Instrument type: LC-ESI-QTOF
Ms type: MS2
Ion mode: POSITIVE
Ionization: ESI
Collision energy: 50eV
Column name: Acquity CSHC18
Retention time: 5.323 min
Base peak: 595.1649
Precursor m/z: 595.1649
Precursor type: [M+H]+
Precursor intensity: 78412.31
m/z	relative intensity
18.8457	3
39.3606	11
54.0329	6
56.1574	17
57.0347	7
69.0319	13
71.0488	93
73.027	22
85.0283	173
86.032	7
109.0199	8
115.3616	3
129.0547	80
131.1104	4
145.0477	29
147.0649	78
170.3181	1
193.1856	7
237.0762	6
259.2045	4
260.0609	8
270.8268	10
286.7842	12
286.8944	25
286.975	18
287.01	110
287.0261	256
287.3272	11
287.5344	63
287.5612	50
288.0135	30
288.035	41
288.0565	999
288.5361	7
288.7059	5
289.0591	78
289.5476	9
289.8771	6
293.6251	7
325.0675	4
413.089	6
432.0998	13
449.104	711
450.1099	138
451.1068	12
452.3174	5
595.1533	3
