Mass spectrum: INDOLe-3-pyruvic acid; LC-ESI-QTOF; MS2; CE: -10, -35, -60V;  [M-H]-
Name: INDOLe-3-pyruvic acid
Class: NA
Formula: C11H9NO3
Exact mass: 203.0582
SMILES: C1=CC=C2C(=C1)C(=CN2)CC(=O)C(=O)O
InChI: InChI=1S/C11H9NO3/c13-10(11(14)15)5-7-6-12-9-4-2-1-3-8(7)9/h1-4,6,12H,5H2,(H,14,15)
Instrument: TripleToF 5600; Sciex
Instrument type: LC-ESI-QTOF
Ms type: MS2
Ion mode: NEGATIVE
Ionization: ESI
Collision energy: -10, -35, -60V
Column name: Acquity CSHC18
Retention time: 13.212 min
Base peak: 202.0523
Precursor m/z: 202.0523
Precursor type: [M-H]-
Precursor intensity: 163298.3
m/z	relative intensity
158.0616	84
174.0548	102
202.0519	999
