Mass spectrum: GUANOSINE; LC-ESI-QTOF; MS2; CE: 40;  [M-H]-
Name: GUANOSINE
Class: NA
Formula: C10H13N5O5
Exact mass: 283.09167
SMILES: NC1=NC2=C(N=CN2[C@@H]2O[C@H](CO)[C@@H](O)[C@H]2O)C(=O)N1
InChI: InChI=1S/C10H13N5O5/c11-10-13-7-4(8(19)14-10)12-2-15(7)9-6(18)5(17)3(1-16)20-9/h2-3,5-6,9,16-18H,1H2,(H3,11,13,14,19)/t3-,5-,6-,9-/m1/s1
Instrument: Agilent 6530Â Q-TOF LC/MS
Instrument type: LC-ESI-QTOF
Ms type: MS2
Ion mode: NEGATIVE
Ionization: ESI
Collision energy: 40
Column name: NA
Retention time: 0.200 min
Base peak: 282.08955
Precursor m/z: 282.08955
Precursor type: [M-H]-
Precursor intensity: 144
m/z	relative intensity
53.0162	104
66.0194	105
78.0149	114
80.0362	125
108.0354	127
132.0346	356
133.0415	429
134.009	649
138.9362	665
150.0603	999
