Mass spectrum: hesperidin; LC-ESI-ITFT; MS2; CE: 0.3;  [M-H]-
Name: hesperidin
Class: flavanones
Formula: C28H34O15
Exact mass: 610.1898
SMILES: CC1C(C(C(C(O1)OCC2C(C(C(C(O2)OC3=CC(=C4C(=O)CC(OC4=C3)C5=CC(=C(C=C5)OC)O)O)O)O)O)O)O)O
InChI: InChI=1S/C28H34O15/c1-10-21(32)23(34)25(36)27(40-10)39-9-19-22(33)24(35)26(37)28(43-19)41-12-6-14(30)20-15(31)8-17(42-18(20)7-12)11-3-4-16(38-2)13(29)5-11/h3-7,10,17,19,21-30,32-37H,8-9H2,1-2H3
Instrument: LTQ-Orbitrap XL hybrid mass spectrometer (Thermo Scientific)
Instrument type: LC-ESI-ITFT
Ms type: MS2
Ion mode: NEGATIVE
Ionization: ESI
Collision energy: 0.3
Column name: Acquity CSHC18
Retention time: 7.689 min
Base peak: 609.1818
Precursor m/z: 609.1818
Precursor type: [M-H]-
Precursor intensity: 19152940
m/z	relative intensity
167.7551	2
194.4903	1
194.5046	1
194.5195	1
194.5356	1
196.0935	1
196.1735	4
196.2534	1
199.04	11
201.0192	4
215.035	6
225.7297	1
227.0347	5
240.0425	2
241.05	3
242.0582	20
243.0606	1
257.0816	7
258.0529	5
258.7288	1
268.0374	4
283.0607	9
284.0641	1
286.0478	26
287.0514	3
287.19	1
287.2117	8
287.2201	2
296.578	2
297.319	3
297.6166	1
298.0641	2
298.084	1
298.3627	1
298.3806	1
298.6679	1
298.8105	8
299.1827	1
299.562	7
299.5792	1
299.8623	4
300.3142	1
300.7699	1
300.9946	1
301.0012	1
301.0147	2
301.0285	3
301.0424	4
301.0537	8
301.0605	5
301.0711	999
301.085	8
301.0928	6
301.1152	3
301.1366	2
301.1486	1
301.159	1
301.8315	2
302.0743	138
302.1346	1
302.5915	1
303.0516	1
303.356	2
304.5873	1
304.8938	1
323.8109	1
325.0708	14
326.0741	2
343.081	1
351.5538	1
367.084	1
457.112	1
457.1321	1
478.5053	2
