Mass spectrum: ANSERINE; LC-ESI-QTOF; MS2; CE: 10;  [M+H]+
Name: ANSERINE
Class: NA
Formula: C10H16N4O3
Exact mass: 240.12224
SMILES: CN1C=NC=C1C[C@H](NC(=O)CCN)C(O)=O
InChI: InChI=1S/C10H16N4O3/c1-14-6-12-5-7(14)4-8(10(16)17)13-9(15)2-3-11/h5-6,8H,2-4,11H2,1H3,(H,13,15)(H,16,17)/t8-/m0/s1
Instrument: Agilent 6530Â Q-TOF LC/MS
Instrument type: LC-ESI-QTOF
Ms type: MS2
Ion mode: POSITIVE
Ionization: ESI
Collision energy: 10
Column name: NA
Retention time: 0.200 min
Base peak: 241.12609
Precursor m/z: 241.12609
Precursor type: [M+H]+
Precursor intensity: 131.5
m/z	relative intensity
41.0486	20
42.0348	20
43.881	21
44.052	22
55.0314	22
56.05	22
58.076	22
59.0717	23
66.0335	23
67.0433	23
68.0678	24
72.0513	25
73.052	25
81.0532	25
82.0703	27
83.0675	27
89.0721	28
90.0538	29
95.0905	29
96.0963	30
97.0989	32
101.0548	33
107.073	34
109.3686	37
110.0858	38
111.0741	41
112.073	41
117.2956	42
122.0825	43
123.0946	43
124.1205	43
125.0801	45
126.1558	45
126.3685	47
126.6217	49
126.8005	51
135.0758	53
136.0901	54
138.1066	55
145.055	57
150.1306	63
151.1012	65
152.082	70
153.105	71
153.2859	71
153.4649	71
154.103	82
156.0908	122
166.1062	126
168.1511	135
170.4446	161
170.9966	162
178.0964	263
179.1496	273
179.5871	276
180.1405	283
194.1246	312
195.128	357
196.114	421
197.1789	440
198.1191	453
206.0936	504
212.1394	576
223.1426	606
224.1496	613
224.3642	786
242.0683	999
243.6297	20
244.0995	20
