Mass spectrum: Uric acid; LC-ESI-ITFT; MS2; CE: 40;  [M+H]+
Name: Uric acid
Class: Organoheterocyclic compounds; Imidazopyrimidines; Purines and purine derivatives
Formula: C5H4N4O3
Exact mass: 168.02834
SMILES: O=C1NC2=C(N1)C(=O)NC(=O)N2
InChI: InChI=1S/C5H4N4O3/c10-3-1-2(7-4(11)6-1)8-5(12)9-3/h(H4,6,7,8,9,10,11,12)
Instrument: Thermo Scientific Q-Exactive Focus
Instrument type: LC-ESI-ITFT
Ms type: MS2
Ion mode: POSITIVE
Ionization: ESI
Collision energy: 40
Column name: Acquity CSHC18
Retention time: 1.465 min
Base peak: 169.03561
Precursor m/z: 169.03561
Precursor type: [M+H]+
m/z	relative intensity
53.0392	366
55.0297	999
55.0548	343
69.0089	306
70.0404	230
79.0546	380
86.9931	279
96.0196	258
105.0036	645
118.0351	220
