Mass spectrum: Kaempferol; ESI-TOF; MS2; CE: 0.6458333;  [M+H]+
Name: Kaempferol
Class: NA
Formula: C15H10O6
Exact mass: 286.04774
SMILES: OC1=CC=C(C=C1)C1=C(O)C(=O)C2=C(O1)C=C(O)C=C2O
InChI: InChI=1S/C15H10O6/c16-8-3-1-7(2-4-8)15-14(20)13(19)12-10(18)5-9(17)6-11(12)21-15/h1-6,16-18,20H
Instrument: waters xevo g2 TOF
Instrument type: ESI-TOF
Ms type: MS2
Ion mode: POSITIVE
Ionization: ESI
Collision energy: 0.6458333
Column name: Acquity CSHC18
Retention time: 3.005 min
Base peak: 287.05574
Precursor m/z: 287.05574
Precursor type: [M+H]+
m/z	relative intensity
68.998	35
75.0451	1
77.0408	1
93.0339	24
105.0341	32
107.0396	16
109.0288	10
111.0084	34
112.0117	1
115.0546	4
117.0704	11
119.0498	4
121.0289	460
122.0323	26
129.0698	12
131.0497	14
132.0473	1
133.0291	26
135.0442	20
138.0429	3
139.0541	2
141.0254	3
143.0499	2
144.0546	1
145.0287	24
146.0689	1
147.0448	81
153.0187	167
154.0219	22
159.0443	10
161.0605	62
165.0187	134
166.0226	21
167.0598	3
169.0649	5
171.0441	12
175.0393	6
179.0352	1
183.0422	5
185.0599	26
186.0632	3
189.0546	8
194.0215	2
197.0602	4
199.0393	4
200.0458	1
201.0542	10
203.0702	24
213.055	75
214.0856	13
216.0414	3
217.0497	8
229.0497	191
230.0535	29
231.0653	36
240.0415	8
241.05	152
242.0535	9
243.0643	7
245.056	9
257.0712	999
258.0562	349
259.0566	38
260.0605	7
263.051	1
269.0797	10
271.0605	39
272.0636	2
279.0262	1
285.0397	13
287.7425	117
295.0716	1
297.0072	2
308.0291	3
317.0658	18
325.0185	27
339.0479	8
341.0022	3
341.9815	4
357.058	7
371.0409	11
372.0194	1
419.0618	11
435.2124	1
440.214	1
458.1966	3
571.0869	12
572.0898	3
581.0394	1
593.0636	1
595.071	2
597.0605	14
598.061	6
607.0185	12
608.0232	3
609.034	22
610.0375	11
611.056	23
612.0528	5
622.0187	5
623.0186	3
624.0182	2
625.068	2
626.0148	108
627.019	50
628.021	13
629.0243	13
641.0607	6
642.0394	1
656.0249	5
757.1967	1
907.0534	1
910.046	2
911.0523	2
964.9767	11
965.9829	5
