Mass spectrum: Carnosine; ESI-TOF; MS2; CE: 0.6458333;  [M+H]+
Name: Carnosine
Class: NA
Formula: C9H14N4O3
Exact mass: 226.10659
SMILES: NCCC(=O)NC(CC1=CN=CN1)C(O)=O
InChI: InChI=1S/C9H14N4O3/c10-2-1-8(14)13-7(9(15)16)3-6-4-11-5-12-6/h4-5,7H,1-3,10H2,(H,11,12)(H,13,14)(H,15,16)
Instrument: waters xevo g2 TOF
Instrument type: ESI-TOF
Ms type: MS2
Ion mode: POSITIVE
Ionization: ESI
Collision energy: 0.6458333
Column name: Acquity CSHC18
Retention time: 0.473 min
Base peak: 227.11459
Precursor m/z: 227.11459
Precursor type: [M+H]+
m/z	relative intensity
82.0533	22
83.061	113
85.0296	8
93.0457	108
95.0607	82
110.0719	999
111.0745	57
113.9644	60
122.0717	84
138.0668	1
146.0948	18
152.0822	19
152.9992	9
156.0772	146
157.0805	10
163.9776	5
164.0824	4
164.0829	71
180.011	7
180.0782	10
181.1088	16
209.105	2
210.0879	34
227.1138	40
228.1171	5
236.0367	15
