Mass spectrum: L-Kynurenine; ESI-TOF; MS2; CE: 6.0000000;  [M+H]+
Name: L-Kynurenine
Class: NA
Formula: C10H12N2O3
Exact mass: 208.08479
SMILES: NC(CC(=O)C1=CC=CC=C1N)C(O)=O
InChI: InChI=1S/C10H12N2O3/c11-7-4-2-1-3-6(7)9(13)5-8(12)10(14)15/h1-4,8H,5,11-12H2,(H,14,15)
Instrument: waters xevo g2 TOF
Instrument type: ESI-TOF
Ms type: MS2
Ion mode: POSITIVE
Ionization: ESI
Collision energy: 6.0000000
Column name: Acquity CSHC18
Retention time: 1.195 min
Base peak: 209.09279
Precursor m/z: 209.09279
Precursor type: [M+H]+
m/z	relative intensity
94.066	35
104.0502	13
118.0657	28
120.045	112
135.9923	5
136.0765	910
137.0795	29
142.9642	8
142.9643	12
146.0606	217
147.0639	16
149.9611	10
150.0557	97
163.0872	106
174.0554	106
192.0662	999
193.0696	89
209.0928	117
210.0952	14
