Mass spectrum: Nandrolone; LC-ESI-QTOF; MS2; CE: 40;  [M+H]+
Name: Nandrolone
Class: NA
Formula: C18H26O2
Exact mass: 274.1933
SMILES: C[C@]12CC[C@H]3[C@H]([C@@H]1CC[C@@H]2O)CCC4=CC(=O)CC[C@H]34
InChI: InChI=1S/C18H26O2/c1-18-9-8-14-13-5-3-12(19)10-11(13)2-4-15(14)16(18)6-7-17(18)20/h10,13-17,20H,2-9H2,1H3/t13-,14+,15+,16-,17-,18-/m0/s1
Instrument: Agilent 6560Â Ion Mobility Q-TOF LC/MS
Instrument type: LC-ESI-QTOF
Ms type: MS2
Ion mode: POSITIVE
Ionization: ESI
Collision energy: 40
Column name: Acquity CSHC18
Retention time: 0.200 min
Base peak: 275.2001
Precursor m/z: 275.2001
Precursor type: [M+H]+
Precursor intensity: 74.5
m/z	relative intensity
77.045	112
79.0611	118
81.0766	122
83.0541	124
91.0613	131
93.0758	137
95.087	164
98.9799	218
103.0551	219
105.0727	223
107.0638	226
109.0723	246
115.055	260
117.0716	261
119.0886	266
123.0798	339
128.0616	414
129.0725	424
130.0776	560
131.0885	658
141.07	709
143.0899	767
145.1011	999
