Mass spectrum: METHIONINE; LC-ESI-QTOF; MS2; CE: 10;  [M-H]-
Name: METHIONINE
Class: NA
Formula: C5H11NO2S
Exact mass: 149.05105
SMILES: CSCC[C@H](N)C(O)=O
InChI: InChI=1S/C5H11NO2S/c1-9-3-2-4(6)5(7)8/h4H,2-3,6H2,1H3,(H,7,8)/t4-/m0/s1
Instrument: Agilent 6530Â Q-TOF LC/MS
Instrument type: LC-ESI-QTOF
Ms type: MS2
Ion mode: NEGATIVE
Ionization: ESI
Collision energy: 10
Column name: NA
Retention time: 0.200 min
Base peak: 148.04636
Precursor m/z: 148.04636
Precursor type: [M-H]-
Precursor intensity: 131
m/z	relative intensity
47.0101	143
148.0475	999
