Mass spectrum: Scopoletin; LC-ESI-QTOF; MS2; CE: 15;  [M-H]-
Name: Scopoletin
Class: NA
Formula: C10H8O4
Exact mass: 192.0423
SMILES: COC1=C(C=C2C(=C1)C=CC(=O)O2)O
InChI: InChI=1S/C10H8O4/c1-13-9-4-6-2-3-10(12)14-8(6)5-7(9)11/h2-5,11H,1H3
Instrument: Bruker MicrOTOF-Q
Instrument type: LC-ESI-QTOF
Ms type: MS2
Ion mode: NEGATIVE
Ionization: ESI
Collision energy: 15
Column name: Acquity CSHC18
Retention time: NA
Base peak: 191.0350
Precursor m/z: 191.0350
Precursor type: [M-H]-
m/z	relative intensity
45.1183	19
46.1432	22
47.4441	20
48.4328	23
49.1549	22
50.9814	20
52.3263	18
52.8392	20
53.508	19
54.6303	19
55.5793	18
56.7541	19
58.9829	21
60.8764	20
62.3569	19
63.9101	18
65.5298	20
66.7332	18
67.2434	27
70.8003	20
75.6234	18
77.0151	19
78.6349	19
80.6496	19
82.3393	21
83.1189	18
83.8649	19
84.9294	21
86.9081	19
89.3518	20
90.1632	18
92.5163	20
95.398	19
96.9067	18
97.8432	18
98.8662	23
100.9797	22
102.804	24
104.1001	174
105.4161	50
106.8682	19
108.0713	18
109.0663	18
111.6097	20
114.0015	22
114.8368	19
115.4513	18
116.2343	19
117.0864	20
117.8426	17
118.6504	18
120.4748	116
123.9882	23
126.5907	18
127.7238	19
128.8269	21
129.9072	17
131.1896	24
131.9122	28
132.8566	22
134.405	22
135.0063	22
135.8568	19
136.9725	18
138.03	21
139.3105	20
140.0974	22
140.5462	22
141.2602	16
141.7976	24
142.4549	25
143.1907	19
145.5225	19
148.3544	508
151.3484	16
152.7297	16
153.9356	18
154.7987	21
155.5022	19
156.895	19
157.6678	19
160.3339	17
162.2339	19
163.2871	18
164.2425	19
164.9094	18
167.1288	16
168.2179	17
171.4344	18
176.1386	999
178.0169	93
180.0088	21
191.0354	259
192.0344	18
