Mass spectrum: Scalesin; LC-ESI-ITFT; MS2; CE: 50eV;  [M+H]+
Name: Scalesin
Class: Sesquiterpenelactone; Guaianolide
Formula: C15H20O4
Exact mass: 264.1362
SMILES: O=C3O[C@H]1[C@@H](CCC(=C)[C@@H]2CC[C@](O)(CO)[C@H]12)C3=C
InChI: InChI=1S/C15H20O4/c1-8-3-4-11-9(2)14(17)19-13(11)12-10(8)5-6-15(12,18)7-16/h10-13,16,18H,1-7H2/t10-,11-,12-,13-,15-/m0/s1
Instrument: Q Exactive Plus, ThermoFisher Scientific
Instrument type: LC-ESI-ITFT
Ms type: MS2
Ion mode: POSITIVE
Ionization: ESI
Collision energy: 50eV
Column name: Acquity CSHC18
Retention time: 5.188 min
Base peak: 265.1429
Precursor m/z: 265.1429
Precursor type: [M+H]+
Precursor intensity: 18065830
m/z	relative intensity
55.677	9
59.2173	10
68.3148	134
73.336	12
81.0706	10
105.0711	16
105.7393	9
119.0858	14
123.5236	9
129.0709	13
131.0857	13
141.0711	14
143.0853	24
149.0598	12
151.0753	11
155.0842	17
157.1003	40
159.0817	12
159.1178	18
161.0969	19
171.1155	14
173.0596	20
173.0963	19
173.1327	93
181.1005	15
183.0815	14
183.1168	383
184.1196	44
185.095	12
187.074	13
187.1128	51
189.1267	18
199.1114	46
201.0899	26
201.1277	554
202.1298	49
211.1125	173
217.1208	263
219.1037	11
219.1375	72
225.7604	10
229.121	999
230.1244	106
247.1336	786
248.1359	112
265.1432	111
