Mass spectrum: L-Tyrosine; LC-ESI-QTOF; MS2; CE: 15.00;  [M-H]-
Name: L-Tyrosine
Class: NA
Formula: C9H11NO3
Exact mass: 181.0739
SMILES: C1=CC(=CC=C1CC(C(=O)O)N)O
InChI: InChI=1S/C9H11NO3/c10-8(9(12)13)5-6-1-3-7(11)4-2-6/h1-4,8,11H,5,10H2,(H,12,13)
Instrument: Bruker MicrOTOF-Q
Instrument type: LC-ESI-QTOF
Ms type: MS2
Ion mode: NEGATIVE
Ionization: ESI
Collision energy: 15.00
Column name: Acquity CSHC18
Retention time: NA
Base peak: 180.0666
Precursor m/z: 180.0666
Precursor type: [M-H]-
m/z	relative intensity
48.22	38
51.38	46
51.94	40
58	55
60.875	48
63	55
63.75	40
67.07	45
68.07	55
76.945	57
79.18	52
81.56	43
82.53	35
83.79	54
84.24	52
84.9	38
87.14	43
90.93	64
93.03	286
94.38	46
94.84	52
97.55	38
98.52	52
98.92	40
103.85	35
106.17	38
107.075	114
110.97	43
111.61	40
113.07	40
116.9	55
118.59	32
119.2033	999
120.235	203
121.19	61
128.5	29
133.01	35
134.07	67
136.07	32
137.07	46
146.58	35
155.21	46
163.185	245
179.7533	54
205.47	40
218.35	32
231.44	49
243.53	55
255.19	55
267.87	29
274.38	46
340.61	32
377.53	35
401.75	49
427.34	40
440.71	52
465.08	55
478.54	58
498.85	32
535.18	38
587.09	32
632.89	43
636.22	35
660.59	29
666.33	32
739.65	35
746.44	43
824.47	35
856.3	52
908.12	32
960.73	35
966.01	43
