Mass spectrum: O-PHOSPHOSERINE; LC-ESI-QTOF; MS2; CE: 40;  [M-H]-
Name: O-PHOSPHOSERINE
Class: NA
Formula: C3H8NO6P
Exact mass: 185.00892
SMILES: NC(COP(O)(O)=O)C(O)=O
InChI: InChI=1S/C3H8NO6P/c4-2(3(5)6)1-10-11(7,8)9/h2H,1,4H2,(H,5,6)(H2,7,8,9)
Instrument: Agilent 6530Â Q-TOF LC/MS
Instrument type: LC-ESI-QTOF
Ms type: MS2
Ion mode: NEGATIVE
Ionization: ESI
Collision energy: 40
Column name: NA
Retention time: 0.200 min
Base peak: 183.99895
Precursor m/z: 183.99895
Precursor type: [M-H]-
Precursor intensity: 147
m/z	relative intensity
62.9627	129
78.9758	999
