Mass spectrum: PYRIDOXAL; LC-ESI-QFT; MS2; CE: 30eV;  [M+H]+
Name: PYRIDOXAL
Class: NA
Formula: C8H9NO3
Exact mass: 167.05824
SMILES: CC1=C(O)C(C=O)=C(CO)C=N1
InChI: InChI=1S/C8H9NO3/c1-5-8(12)7(4-11)6(3-10)2-9-5/h2,4,10,12H,3H2,1H3
Instrument: Q-Exactive Orbitrap, Thermo Scientfic; Ultimate 3000 HPLC, Thermo Scientfic
Instrument type: LC-ESI-QFT
Ms type: MS2
Ion mode: POSITIVE
Ionization: ESI
Collision energy: 30eV
Column name: Acquity CSHC18
Retention time: 0.692 min
Base peak: 168.0655
Precursor m/z: 168.0655
Precursor type: [M+H]+
Precursor intensity: 139
m/z	relative intensity
52.336	6
64.5454	7
65.0389	7
67.0549	43
70.8564	9
70.932	8
79.6634	8
93.3663	8
94.0656	188
106.0655	64
107.0859	14
114.04	7
122.0602	169
140.2733	9
151.0527	15
151.0582	467
168.0654	999
169.0685	30
169.3138	8
