Mass spectrum: PREGNENOLONE SULFATE; LC-ESI-QFT; MS2; CE: 30eV;  [M-H]-
Name: PREGNENOLONE SULFATE
Class: NA
Formula: C21H32O5S
Exact mass: 396.19705
SMILES: CC(=O)C1CCC2C1(CCC3C2CC=C4C3(CCC(C4)OS(=O)(=O)O)C)C
InChI: InChI=1S/C21H32O5S/c1-13(22)17-6-7-18-16-5-4-14-12-15(26-27(23,24)25)8-10-20(14,2)19(16)9-11-21(17,18)3/h4,15-19H,5-12H2,1-3H3,(H,23,24,25)
Instrument: Q-Exactive Orbitrap, Thermo Scientfic; Ultimate 3000 HPLC, Thermo Scientfic
Instrument type: LC-ESI-QFT
Ms type: MS2
Ion mode: NEGATIVE
Ionization: ESI
Collision energy: 30eV
Column name: Acquity CSHC18
Retention time: 9.579 min
Base peak: 395.1898
Precursor m/z: 395.1898
Precursor type: [M-H]-
Precursor intensity: 157
m/z	relative intensity
52.8249	5
52.9297	4
61.6568	5
64.118	5
79.9557	23
80.6393	4
81.2358	5
81.4198	5
83.9133	5
88.6301	4
97.9579	12
106.1293	4
113.1792	4
160.8668	4
173.9927	5
189.6584	4
193.0004	6
201.0094	5
281.0755	5
383.6058	6
396.1931	999
397.9981	6
