Mass spectrum: 20:0(2R-OH) Ceramide; ESI-TOF; MS2; CE: 0.6458333;  [M+H]+
Name: 20:0(2R-OH) Ceramide
Class: NA
Formula: C38H75NO4
Exact mass: 609.56961
SMILES: [H]OC([H])([H])C([H])(N([H])C(=O)C([H])(O[H])C([H])([H])C([H])([H])C([H])([H])C([H])([H])C([H])([H])C([H])([H])C([H])([H])C([H])([H])C([H])([H])C([H])([H])C([H])([H])C([H])([H])C([H])([H])C([H])([H])C([H])([H])C([H])([H])C([H])([H])C([H])([H])[H])C([H])(O[H])C([H])=C([H])C([H])([H])C([H])([H])C([H])([H])C([H])([H])C([H])([H])C([H])([H])C([H])([H])C([H])([H])C([H])([H])C([H])([H])C([H])([H])C([H])([H])C([H])([H])[H]
InChI: InChI=1S/C38H75NO4/c1-3-5-7-9-11-13-15-17-18-19-21-23-25-27-29-31-33-37(42)38(43)39-35(34-40)36(41)32-30-28-26-24-22-20-16-14-12-10-8-6-4-2/h30,32,35-37,40-42H,3-29,31,33-34H2,1-2H3,(H,39,43)
Instrument: waters xevo g2 TOF
Instrument type: ESI-TOF
Ms type: MS2
Ion mode: POSITIVE
Ionization: ESI
Collision energy: 0.6458333
Column name: Acquity CSHC18
Retention time: 11.529 min
Base peak: 610.57761
Precursor m/z: 610.57761
Precursor type: [M+H]+
m/z	relative intensity
252.2689	382
253.2734	61
264.2681	42
265.272	374
282.2781	153
300.755	37
301.2524	33
328.3222	76
392.285	98
537.3945	59
562.5563	195
563.5577	42
574.5604	537
575.5614	222
592.5676	999
593.5713	433
594.5749	77
610.5799	143
611.5792	60
