Mass spectrum: Apigenin 7-glucoside; LC-ESI-QTOF; MS2; CE: 50eV;  [M-H]-
Name: Apigenin 7-glucoside
Class: Falvone
Formula: C21H20O10
Exact mass: 432.1056
SMILES: C1=CC(=CC=C1C2=CC(=O)C3=C(C=C(C=C3O2)OC4C(C(C(C(O4)CO)O)O)O)O)O
InChI: InChI=1S/C21H20O10/c22-8-16-18(26)19(27)20(28)21(31-16)29-11-5-12(24)17-13(25)7-14(30-15(17)6-11)9-1-3-10(23)4-2-9/h1-7,16,18-24,26-28H,8H2
Instrument: TIMS-TOF Pro, Bruker Daltonik; Elute UHPLC System, Bruker Daltonik
Instrument type: LC-ESI-QTOF
Ms type: MS2
Ion mode: NEGATIVE
Ionization: ESI
Collision energy: 50eV
Column name: Acquity CSHC18
Retention time: 5.620 min
Base peak: 431.0896
Precursor m/z: 431.0896
Precursor type: [M-H]-
Precursor intensity: 309622.8
m/z	relative intensity
42.8554	2
60.9604	1
63.0236	8
65.0016	9
78.1665	1
82.4747	3
94.005	2
96.1543	4
98.7552	4
107.8769	6
115.5264	1
117.0328	44
118.0362	9
120.0196	3
121.9986	5
135.0083	2
137.0181	3
140.811	5
148.0125	5
149.0213	23
150.0007	6
151.0026	58
152.0041	8
156.0665	3
158.1773	4
159.051	4
162.1241	2
168.0557	8
170.0339	3
172.0486	6
183.0457	5
188.8854	1
195.0524	4
198.2984	6
200.0474	3
204.1448	3
208.3202	5
208.6867	6
209.4414	5
210.2202	3
211.0394	6
213.3753	8
214.8588	4
216.0971	3
217.3552	2
218.3629	7
220.3572	6
222.2336	7
223.9103	6
225.8397	3
233.693	4
239.0308	5
240.0435	10
240.8307	5
246.6945	9
251.4223	2
259.7962	2
268.0336	105
268.3306	2
268.6612	1
269.0413	131
269.3932	3
270.0431	17
271.0494	3
300.211	2
311.0463	2
341.0552	2
350.5725	1
416.4096	1
429.8334	3
430.3893	2
430.6739	2
430.7754	4
430.8948	6
431.0449	999
431.2206	5
431.2959	6
431.404	8
431.5218	6
