Mass spectrum: Niveusin C, des-3-hydroxy; LC-ESI-ITFT; MS2; CE: 50eV;  [M+H]+
Name: Niveusin C, des-3-hydroxy
Class: Sesquiterpenelactone; Heliangolide
Formula: C20H26O6
Exact mass: 362.1729
SMILES: C\C=C(\C)C(=O)O[C@@H]3C[C@@]1(C)O[C@@H](C[C@@H]1O)C(C)=C[C@@H]2OC(=O)C(=C)[C@@H]23
InChI: InChI=1S/C20H26O6/c1-6-10(2)18(22)25-15-9-20(5)16(21)8-13(26-20)11(3)7-14-17(15)12(4)19(23)24-14/h6-7,13-17,21H,4,8-9H2,1-3,5H3/b10-6-,11-7?/t13-,14-,15+,16-,17-,20+/m0/s1
Instrument: Q Exactive Plus, ThermoFisher Scientific
Instrument type: LC-ESI-ITFT
Ms type: MS2
Ion mode: POSITIVE
Ionization: ESI
Collision energy: 50eV
Column name: Acquity CSHC18
Retention time: 5.906 min
Base peak: 363.1792
Precursor m/z: 363.1792
Precursor type: [M+H]+
Precursor intensity: 117042300
m/z	relative intensity
55.055	103
70.0857	6
83.0501	999
95.0499	44
101.0598	6
117.0706	28
121.0649	9
125.0599	6
135.0807	8
143.0868	8
145.0648	22
145.1013	6
149.0597	8
149.0959	9
151.0752	7
157.1019	62
159.1159	20
163.0754	36
165.0547	6
165.0909	8
171.1169	66
173.0962	12
173.133	9
175.0765	6
175.1113	37
177.0908	8
179.0695	175
181.1006	74
185.0947	43
189.1267	21
191.0706	11
193.1236	9
199.1113	222
201.0898	9
201.1277	22
203.106	81
205.0863	24
209.0969	24
217.1237	177
219.1005	23
221.1167	73
227.1075	177
235.1309	6
245.1155	467
263.1285	339
345.1715	21
363.181	807
