Mass spectrum: DOPAMINE; LC-ESI-QTOF; MS2; CE: 10;  [M+H]+
Name: DOPAMINE
Class: NA
Formula: C8H11NO2
Exact mass: 153.0790
SMILES: NCCC1=CC=C(O)C(O)=C1 
InChI: InChI=1S/C8H11NO2/c9-4-3-6-1-2-7(10)8(11)5-6/h1-2,5,10-11H,3-4,9H2
Instrument: Agilent 6530Â Q-TOF LC/MS
Instrument type: LC-ESI-QTOF
Ms type: MS2
Ion mode: POSITIVE
Ionization: ESI
Collision energy: 10
Column name: NA
Retention time: 0.200 min
Base peak: 154.08523
Precursor m/z: 154.08523
Precursor type: [M+H]+
Precursor intensity: 82.5
m/z	relative intensity
91.0522	24
109.0592	26
119.0459	61
137.0563	306
138.0116	809
154.0755	999
