Mass spectrum: Progesterone; LC-ESI-ITFT; MS2; CE: 10;  [M+H]+
Name: Progesterone
Class: Lipids and lipid-like molecules; Steroids and steroid derivatives; Pregnane steroids
Formula: C21H30O2
Exact mass: 314.22458
SMILES: [H][C@@]12CC[C@H](C(C)=O)[C@@]1(C)CC[C@@]1([H])[C@@]2([H])CCC2=CC(=O)CC[C@]12C
InChI: InChI=1S/C21H30O2/c1-13(22)17-6-7-18-16-5-4-14-12-15(23)8-10-20(14,2)19(16)9-11-21(17,18)3/h12,16-19H,4-11H2,1-3H3/t16-,17+,18-,19-,20-,21+/m0/s1
Instrument: Thermo Scientific Q-Exactive Focus
Instrument type: LC-ESI-ITFT
Ms type: MS2
Ion mode: POSITIVE
Ionization: ESI
Collision energy: 10
Column name: Acquity CSHC18
Retention time: 0.354 min
Base peak: 315.23187
Precursor m/z: 315.23187
Precursor type: [M+H]+
m/z	relative intensity
83.0496	2
85.0653	2
97.0652	86
109.0651	43
123.0806	3
233.19	2
273.2211	3
279.2104	6
297.2212	29
315.232	999
