Mass spectrum: Thromboxane B2; ESI-TOF; MS2; CE: 0.6458333;  [M+H]+
Name: Thromboxane B2
Class: NA
Formula: C20H34O6
Exact mass: 370.23554
SMILES: CCCCCC(O)/C=C/[C@H]1OC(O)CC(O)C1C/C=C\CCCC(=O)O
InChI: InChI=1S/C20H34O6/c1-2-3-6-9-15(21)12-13-18-16(17(22)14-20(25)26-18)10-7-4-5-8-11-19(23)24/h4,7,12-13,15-18,20-22,25H,2-3,5-6,8-11,14H2,1H3,(H,23,24)/b7-4-,13-12+/t15?,16?,17?,18-,20?/m1/s1
Instrument: waters xevo g2 TOF
Instrument type: ESI-TOF
Ms type: MS2
Ion mode: POSITIVE
Ionization: ESI
Collision energy: 0.6458333
Column name: Acquity CSHC18
Retention time: 3.523 min
Base peak: 371.24354
Precursor m/z: 371.24354
Precursor type: [M+H]+
m/z	relative intensity
71.0864	364
99.0817	629
117.071	436
119.0489	71
121.0301	165
130.0735	88
131.0871	836
135.0807	198
143.0865	447
145.1021	199
149.0616	100
155.0868	506
159.0798	162
169.1014	189
201.1279	282
207.1139	79
209.0497	999
221.0849	219
273.1832	62
291.1956	82
303.193	197
317.2101	442
331.204	89
335.2221	266
339.1925	246
347.1521	426
348.158	119
349.1968	162
357.2021	236
363.125	200
371.1316	388
373.1639	71
