Mass spectrum: L-Lysine; LC-ESI-ITFT; MS2; CE: 60;  [M+H]+
Name: L-Lysine
Class: Organic acids and derivatives; Carboxylic acids and derivatives; Amino acids, peptides, and analogues
Formula: C6H14N2O2
Exact mass: 146.10553
SMILES: NCCCC[C@H](N)C(O)=O
InChI: InChI=1S/C6H14N2O2/c7-4-2-1-3-5(8)6(9)10/h5H,1-4,7-8H2,(H,9,10)/t5-/m0/s1
Instrument: Thermo Scientific Q-Exactive Focus
Instrument type: LC-ESI-ITFT
Ms type: MS2
Ion mode: POSITIVE
Ionization: ESI
Collision energy: 60
Column name: Acquity CSHC18
Retention time: 1.918 min
Base peak: 147.11279
Precursor m/z: 147.11279
Precursor type: [M+H]+
m/z	relative intensity
53.0028	52
54.0344	190
55.0548	99
56.0501	999
64.9278	595
65.0391	80
68.05	261
69.0578	72
84.0811	73
87.2731	51
