Mass spectrum: 2-QUINOLINECARBOXYLATE; LC-ESI-QFT; MS2; CE: 30eV;  [M+H]+
Name: 2-QUINOLINECARBOXYLATE
Class: NA
Formula: C10H7NO2
Exact mass: 173.04768
SMILES: OC(=O)C1=NC2=CC=CC=C2C=C1
InChI: InChI=1S/C10H7NO2/c12-10(13)9-6-5-7-3-1-2-4-8(7)11-9/h1-6H,(H,12,13)
Instrument: Q-Exactive Orbitrap, Thermo Scientfic; Ultimate 3000 HPLC, Thermo Scientfic
Instrument type: LC-ESI-QFT
Ms type: MS2
Ion mode: POSITIVE
Ionization: ESI
Collision energy: 30eV
Column name: Acquity CSHC18
Retention time: 5.229 min
Base peak: 174.0550
Precursor m/z: 174.0550
Precursor type: [M+H]+
Precursor intensity: 130
m/z	relative intensity
52.0576	8
52.5796	8
54.7165	8
64.66	8
66.0775	8
69.5892	9
76.9183	9
87.9754	9
100.1874	10
101.0387	9
112.9766	10
127.2695	11
128.0448	22
128.0496	606
129.045	16
129.053	20
129.0573	11
147.0636	607
150.2793	14
156.0447	197
157.0475	13
168.9382	12
175.0519	42
175.0585	999
176.0594	12
