Mass spectrum: Cystine; LC-ESI-QTOF; MS2; CE: 30;  [M-H]-
Name: Cystine
Class: NA
Formula: C6H12N2O4S2
Exact mass: 240.0238
SMILES: C(C(C(=O)O)N)SSCC(C(=O)O)N
InChI: InChI=1S/C6H12N2O4S2/c7-3(5(9)10)1-13-14-2-4(8)6(11)12/h3-4H,1-2,7-8H2,(H,9,10)(H,11,12)
Instrument: impact II
Instrument type: LC-ESI-QTOF
Ms type: MS2
Ion mode: NEGATIVE
Ionization: ESI
Collision energy: 30
Column name: Acquity CSHC18
Retention time: 1.847 min
Base peak: 239.0167
Precursor m/z: 239.0167
Precursor type: [M-H]-
m/z	relative intensity
71.9919	135
74.0075	999
86.0251	395
117.9967	120
120.0125	953
