Mass spectrum: 2-Nitrophenol; LC-ESI-ITFT; MS2; CE: 30;  [M-H]-
Name: 2-Nitrophenol
Class: NA
Formula: C6H5NO3
Exact mass: 139.02694
SMILES: C1=CC=C(C(=C1)[N+](=O)[O-])O
InChI: InChI=1S/C6H5NO3/c8-6-4-2-1-3-5(6)7(9)10/h1-4,8H
Instrument: Thermo Scientific Q-Exactive Focus
Instrument type: LC-ESI-ITFT
Ms type: MS2
Ion mode: NEGATIVE
Ionization: ESI
Collision energy: 30
Column name: Acquity CSHC18
Retention time: 0.929 min
Base peak: 138.01967
Precursor m/z: 138.01967
Precursor type: [M-H]-
m/z	relative intensity
56.8106	21
65.002	42
78.9578	28
82.1773	20
91.0177	101
94.0367	70
106.4852	19
108.0205	999
109.4275	24
136.4162	19
