Mass spectrum: UDP-glucose; LC-ESI-QTOF; MS2; CE: -10, -35, -60V;  [M-H]-
Name: UDP-glucose
Class: NA
Formula: C15H24N2O17P2
Exact mass: 566.0550
SMILES: C1=CN(C(=O)NC1=O)C2C(C(C(O2)COP(=O)(O)OP(=O)(O)OC3C(C(C(C(O3)CO)O)O)O)O)O
InChI: InChI=1S/C15H24N2O17P2/c18-3-5-8(20)10(22)12(24)14(32-5)33-36(28,29)34-35(26,27)30-4-6-9(21)11(23)13(31-6)17-2-1-7(19)16-15(17)25/h1-2,5-6,8-14,18,20-24H,3-4H2,(H,26,27)(H,28,29)(H,16,19,25)
Instrument: TripleToF 5600; Sciex
Instrument type: LC-ESI-QTOF
Ms type: MS2
Ion mode: NEGATIVE
Ionization: ESI
Collision energy: -10, -35, -60V
Column name: Acquity CSHC18
Retention time: 9.768 min
Base peak: 565.0568
Precursor m/z: 565.0568
Precursor type: [M-H]-
Precursor intensity: 352609.6
m/z	relative intensity
78.9591	243
80.9625	7
96.9701	158
111.0186	54
120.9705	15
138.9806	39
150.9804	60
158.9281	270
164.0407	8
168.99	4
174.9845	26
176.9415	30
192.9924	39
205.0034	5
211.0055	142
212.0115	10
240.9299	6
241.0154	307
242.0202	26
262.0181	11
272.9616	165
273.9654	8
280.0271	71
281.0297	7
305.0236	41
306.0328	5
320.9843	77
322.0095	7
323.0236	984
323.0362	999
324.0393	261
325.0362	47
338.9902	34
384.993	142
385.9936	20
386.9872	7
402.9984	31
563.2981	8
565.0618	854
