Mass spectrum: o-Tyrosine; ESI-TOF; MS2; CE: 0.6458333;  [M+H]+
Name: o-Tyrosine
Class: NA
Formula: C9H11NO3
Exact mass: 181.07389
SMILES: NC(CC1=CC=CC=C1O)C(O)=O
InChI: InChI=1S/C9H11NO3/c10-7(9(12)13)5-6-3-1-2-4-8(6)11/h1-4,7,11H,5,10H2,(H,12,13)
Instrument: waters xevo g2 TOF
Instrument type: ESI-TOF
Ms type: MS2
Ion mode: POSITIVE
Ionization: ESI
Collision energy: 0.6458333
Column name: Acquity CSHC18
Retention time: 1.127 min
Base peak: 182.08189
Precursor m/z: 182.08189
Precursor type: [M+H]+
m/z	relative intensity
65.0402	4
91.0548	15
92.0582	59
95.0498	51
103.0546	44
107.0503	8
119.0495	999
123.0447	102
136.076	348
147.0441	25
151.9232	11
164.071	2
