Mass spectrum: L-Tyrosine; LC-ESI-ITFT; MS2; CE: 40;  [M+H]+
Name: L-Tyrosine
Class: Organic acids and derivatives; Carboxylic acids and derivatives; Amino acids, peptides, and analogues
Formula: C9H11NO3
Exact mass: 181.07389
SMILES: N[C@@H](CC1=CC=C(O)C=C1)C(O)=O
InChI: InChI=1S/C9H11NO3/c10-8(9(12)13)5-6-1-3-7(11)4-2-6/h1-4,8,11H,5,10H2,(H,12,13)/t8-/m0/s1
Instrument: Thermo Scientific Q-Exactive Focus
Instrument type: LC-ESI-ITFT
Ms type: MS2
Ion mode: POSITIVE
Ionization: ESI
Collision energy: 40
Column name: Acquity CSHC18
Retention time: 1.463 min
Base peak: 182.08118
Precursor m/z: 182.08118
Precursor type: [M+H]+
m/z	relative intensity
53.0392	102
58.9539	71
65.0391	222
67.0548	26
77.039	32
91.0546	999
95.0494	338
105.045	51
107.0494	143
119.0492	44
