Mass spectrum: Ginkgolide C; LC-ESI-QFT; MS2; CE: 15,30,45 (NCE);  [M+NH4]+
Name: Ginkgolide C
Class: NA
Formula: C20H24O11
Exact mass: 440.1319
SMILES: CC1C(=O)OC2C(O)C34C5OC(=O)C3(OC3OC(=O)C(O)C43C(C5O)C(C)(C)C)C12O
InChI: InChI=1S/C20H24O11/c1-5-12(24)28-11-8(22)18-10-6(21)7(16(2,3)4)17(18)9(23)13(25)30-15(17)31-20(18,14(26)29-10)19(5,11)27/h5-11,15,21-23,27H,1-4H3
Instrument: QE Focus, Thermo Scientfic; UPLC I-Class, Waters
Instrument type: LC-ESI-QFT
Ms type: MS2
Ion mode: POSITIVE
Ionization: ESI
Collision energy: 15,30,45 (NCE)
Column name: Acquity CSHC18
Retention time: 1.552 min
Base peak: 458.1670
Precursor m/z: 458.1670
Precursor type: [M+NH4]+
Precursor intensity: 43116340
m/z	relative intensity
52.1387	16
56.6939	18
57.0708	23
58.0892	16
76.7384	17
77.2865	19
87.5954	17
88.3945	18
116.5893	24
155.3673	19
155.5436	20
177.0543	37
203.0707	22
205.0498	30
211.3487	20
232.1141	27
233.0457	26
247.0614	29
251.0553	28
325.0557	179
339.7175	21
388.8059	29
430.0751	21
441.1394	408
458.1662	999
