Mass spectrum: Suberosin; LC-ESI-ITFT; MS2; CE: 45eV;  [M+H]+
Name: Suberosin
Class: coumarin
Formula: C15H16O3
Exact mass: 244.1099
SMILES: CC(=CCC1=C(C=C2C(=C1)C=CC(=O)O2)OC)C
InChI: InChI=1S/C15H16O3/c1-10(2)4-5-11-8-12-6-7-15(16)18-14(12)9-13(11)17-3/h4,6-9H,5H2,1-3H3
Instrument: LTQ Orbitrap XL, Thermo Scientfic; Dionex Ultimate 300
Instrument type: LC-ESI-ITFT
Ms type: MS2
Ion mode: POSITIVE
Ionization: ESI
Collision energy: 45eV
Column name: Alltima C18
Retention time: 23.62 min
Base peak: 245.1178
Precursor m/z: 245.1178
Precursor type: [M+H]+
m/z	relative intensity
187.1542	5
203.0465	999
226.8518	17
