Mass spectrum: D-mannitol; LC-ESI-QTOF; MS2; CE: 15.00;  [M-H]-
Name: D-mannitol
Class: NA
Formula: C6H14O6
Exact mass: 182.0790
SMILES: C(C(C(C(C(CO)O)O)O)O)O
InChI: InChI=1S/C6H14O6/c7-1-3(9)5(11)6(12)4(10)2-8/h3-12H,1-2H2
Instrument: Bruker MicrOTOF-Q
Instrument type: LC-ESI-QTOF
Ms type: MS2
Ion mode: NEGATIVE
Ionization: ESI
Collision energy: 15.00
Column name: Acquity CSHC18
Retention time: NA
Base peak: 181.0718
Precursor m/z: 181.0718
Precursor type: [M-H]-
m/z	relative intensity
49.6799	343
63.2014	290
72.5442	375
76.1812	225
83.5427	386
91.3778	429
100.8204	354
101.0255	999
101.4584	268
102.0371	375
117.3578	247
127.0427	247
132.9349	386
139.4275	343
148.8996	365
149.0502	300
158.275	214
179.8166	214
181.0875	300
187.8543	397
189.1099	247
205.0904	386
223.0722	386
252.5033	279
256.4618	236
295.2844	290
307.7362	365
341.0156	257
350.5663	236
352.335	236
390.1707	343
412.7657	311
428.9396	322
458.9624	300
462.8959	257
466.9247	408
505.4586	214
569.998	354
571.2249	300
598.9604	225
653.4097	214
668.9173	247
723.0853	311
759.2986	375
763.5986	397
786.6317	526
800.9155	311
857.8595	311
964.7142	268
969.3195	365
