Mass spectrum: CYCLIC AMP; LC-ESI-QTOF; MS2; CE: 40;  [M+H]+
Name: CYCLIC AMP
Class: NA
Formula: C10H12N5O6P
Exact mass: 329.05252
SMILES: [H][C@@]12COP(O)(=O)O[C@@]1([H])[C@@H](O)[C@@H](O2)N1C=NC2=C1N=CN=C2N
InChI: InChI=1S/C10H12N5O6P/c11-8-5-9(13-2-12-8)15(3-14-5)10-6(16)7-4(20-10)1-19-22(17,18)21-7/h2-4,6-7,10,16H,1H2,(H,17,18)(H2,11,12,13)/t4-,6-,7-,10-/m1/s1
Instrument: Agilent 6530Â Q-TOF LC/MS
Instrument type: LC-ESI-QTOF
Ms type: MS2
Ion mode: POSITIVE
Ionization: ESI
Collision energy: 40
Column name: NA
Retention time: 0.200 min
Base peak: 330.06275
Precursor m/z: 330.06275
Precursor type: [M+H]+
Precursor intensity: 16.5
m/z	relative intensity
41.0433	26
43.018	27
46.0621	27
55.0146	27
59.0499	27
65.0132	28
67.0341	28
69.0432	28
73.0229	28
80.9812	29
82.0368	30
84.0789	30
92.0281	30
94.0457	30
97.0398	31
98.9973	32
107.0851	32
111.8912	32
114.0782	33
118.0356	34
119.0652	34
121.0527	36
122.9836	39
134.9761	41
135.056	45
136.1048	46
136.4499	48
137.0514	55
148.0698	58
160.0612	65
176.0717	85
176.9893	92
186.0732	120
187.0556	250
214.0679	999
