Mass spectrum: Glyoxylic acid; LC-ESI-ITFT; MS2; CE: 10;  [M-H]-
Name: Glyoxylic acid
Class: Organic acids and derivatives; Carboxylic acids and derivatives; Carboxylic acids
Formula: C2H2O3
Exact mass: 74.00039
SMILES: OC(=O)C=O
InChI: InChI=1S/C2H2O3/c3-1-2(4)5/h1H,(H,4,5)
Instrument: Thermo Scientific Q-Exactive Focus
Instrument type: LC-ESI-ITFT
Ms type: MS2
Ion mode: NEGATIVE
Ionization: ESI
Collision energy: 10
Column name: Acquity CSHC18
Retention time: 0.362 min
Base peak: 72.99312
Precursor m/z: 72.99312
Precursor type: [M-H]-
m/z	relative intensity
59.2236	5
59.9433	4
64.3025	4
70.3931	5
71.7582	4
72.9919	999
73.8928	4
77.8191	5
81.6194	4
89.3878	5
