Mass spectrum: 3-phosphoglycerate; LC-ESI-QTOF; MS2; CE: -10, -35, -60V;  [M-H]-
Name: 3-phosphoglycerate
Class: NA
Formula: C3H7O7P
Exact mass: 185.9929
SMILES: C(C(C(=O)O)O)OP(=O)(O)O
InChI: InChI=1S/C3H7O7P/c4-2(3(5)6)1-10-11(7,8)9/h2,4H,1H2,(H,5,6)(H2,7,8,9)
Instrument: TripleToF 5600; Sciex
Instrument type: LC-ESI-QTOF
Ms type: MS2
Ion mode: NEGATIVE
Ionization: ESI
Collision energy: -10, -35, -60V
Column name: Acquity CSHC18
Retention time: 12.056 min
Base peak: 184.9867
Precursor m/z: 184.9867
Precursor type: [M-H]-
Precursor intensity: 65146.19
m/z	relative intensity
78.9592	999
96.9702	189
184.986	92
