Mass spectrum: INOSINE; LC-ESI-QFT; MS2; CE: 30eV;  [M+H]+
Name: INOSINE
Class: NA
Formula: C10H12N4O5
Exact mass: 268.08077
SMILES: OC[C@H]1O[C@H]([C@H](O)[C@@H]1O)N1C=NC2=C1N=CNC2=O
InChI: InChI=1S/C10H12N4O5/c15-1-4-6(16)7(17)10(19-4)14-3-13-5-8(14)11-2-12-9(5)18/h2-4,6-7,10,15-17H,1H2,(H,11,12,18)/t4-,6-,7-,10-/m1/s1
Instrument: Q-Exactive Orbitrap, Thermo Scientfic; Ultimate 3000 HPLC, Thermo Scientfic
Instrument type: LC-ESI-QFT
Ms type: MS2
Ion mode: POSITIVE
Ionization: ESI
Collision energy: 30eV
Column name: Acquity CSHC18
Retention time: 1.107 min
Base peak: 269.0880
Precursor m/z: 269.0880
Precursor type: [M+H]+
Precursor intensity: 119
m/z	relative intensity
55.0298	1
55.2189	1
57.0343	4
69.0343	1
73.0291	2
94.0405	1
113.5821	1
115.0393	1
115.9766	1
133.0498	6
137.046	999
138.0432	4
138.0493	21
252.5396	1
