Mass spectrum: 17-trifluoromethylphenyl-13,14-dihydro trinor Prostaglandin F1-alpha; ESI-TOF; MS2; CE: 6.0000000;  [M+H]+
Name: 17-trifluoromethylphenyl-13,14-dihydro trinor Prostaglandin F1-alpha
Class: NA
Formula: C24H35F3O5
Exact mass: 460.24366
SMILES: O[C@@H]1[C@H](CCCCCCC(O)=O)[C@@H](CC[C@@H](O)CCC2=CC(C(F)(F)F)=CC=C2)[C@H](O)C1
InChI: InChI=1S/C24H35F3O5/c25-24(26,27)17-7-5-6-16(14-17)10-11-18(28)12-13-20-19(21(29)15-22(20)30)8-3-1-2-4-9-23(31)32/h5-7,14,18-22,28-30H,1-4,8-13,15H2,(H,31,32)/t18-,19+,20+,21-,22+/m0/s1
Instrument: waters xevo g2 TOF
Instrument type: ESI-TOF
Ms type: MS2
Ion mode: POSITIVE
Ionization: ESI
Collision energy: 6.0000000
Column name: Acquity CSHC18
Retention time: 4.026 min
Base peak: 461.25166
Precursor m/z: 461.25166
Precursor type: [M+H]+
m/z	relative intensity
127.9609	2
202.0815	5
207.138	7
209.1533	5
211.0817	54
211.589	17
213.0863	2
220.0941	112
223.1697	13
224.1719	1
230.0961	19
230.5998	2
251.111	8
347.1993	16
365.2102	9
366.2125	4
367.2067	11
371.2001	4
383.2171	2
385.2122	13
387.2108	18
388.2097	2
389.2087	41
407.2201	794
408.2231	183
409.2269	23
425.2296	999
426.2328	285
427.2371	40
428.2349	3
443.2413	131
444.2384	28
445.2374	2
450.2162	3
450.7136	2
454.1418	23
461.2528	230
462.2582	61
