Mass spectrum: (-)-Borneol; APCI-ITFT; MS2; CE: HCD 90;  [M-H]-
Name: (-)-Borneol
Class: NA
Formula: C10H18O
Exact mass: 154.13577
SMILES: CC1(C2CCC1(C(C2)O)C)C
InChI: InChI=1S/C10H18O/c1-9(2)7-4-5-10(9,3)8(11)6-7/h7-8,11H,4-6H2,1-3H3
Instrument: Orbitrap Elite
Instrument type: APCI-ITFT
Ms type: MS2
Ion mode: NEGATIVE
Ionization: APCI
Collision energy: HCD 90
Column name: Acquity CSHC18
Retention time: 0.066 min
Base peak: 153.12870
Precursor m/z: 153.12870
Precursor type: [M-H]-
Precursor intensity: 276778.2
m/z	relative intensity
55.722	7
60.3012	6
62.9222	6
66.8513	6
74.8322	6
85.9576	6
95.6053	5
98.3393	7
113.0667	6
125.1343	6
151.113	127
152.1178	10
153.1289	999
