Mass spectrum: Xanthine; LC-ESI-ITFT; MS2; CE: 20;  [M+H]+
Name: Xanthine
Class: Organoheterocyclic compounds; Imidazopyrimidines; Purines and purine derivatives
Formula: C5H4N4O2
Exact mass: 152.03343
SMILES: O=C1NC2=C(NC=N2)C(=O)N1
InChI: InChI=1S/C5H4N4O2/c10-4-2-3(7-1-6-2)8-5(11)9-4/h1H,(H3,6,7,8,9,10,11)
Instrument: Thermo Scientific Q-Exactive Focus
Instrument type: LC-ESI-ITFT
Ms type: MS2
Ion mode: POSITIVE
Ionization: ESI
Collision energy: 20
Column name: Acquity CSHC18
Retention time: 0.630 min
Base peak: 153.04070
Precursor m/z: 153.04070
Precursor type: [M+H]+
m/z	relative intensity
55.0296	118
81.0087	34
82.0404	92
83.0244	19
98.0076	17
110.0352	999
128.0455	57
136.0142	47
153.0406	101
154.0247	454
