Mass spectrum: C18-02:0 PC; ESI-TOF; MS2; CE: 0.6458333;  [M+H]+
Name: C18-02:0 PC
Class: NA
Formula: C28H58NO7P
Exact mass: 551.39509
SMILES: [H]C([H])([H])C(=O)OC([H])(C([H])([H])OC([H])([H])C([H])([H])C([H])([H])C([H])([H])C([H])([H])C([H])([H])C([H])([H])C([H])([H])C([H])([H])C([H])([H])C([H])([H])C([H])([H])C([H])([H])C([H])([H])C([H])([H])C([H])([H])C([H])([H])C([H])([H])[H])C([H])([H])OP(=O)([O-])OC([H])([H])C([H])([H])[N+](C([H])([H])[H])(C([H])([H])[H])C([H])([H])[H]
InChI: InChI=1S/C28H58NO7P/c1-6-7-8-9-10-11-12-13-14-15-16-17-18-19-20-21-23-33-25-28(36-27(2)30)26-35-37(31,32)34-24-22-29(3,4)5/h28H,6-26H2,1-5H3
Instrument: waters xevo g2 TOF
Instrument type: ESI-TOF
Ms type: MS2
Ion mode: POSITIVE
Ionization: ESI
Collision energy: 0.6458333
Column name: Acquity CSHC18
Retention time: 8.614 min
Base peak: 552.40309
Precursor m/z: 552.40309
Precursor type: [M+H]+
m/z	relative intensity
57.0714	1
71.0865	5
85.1021	9
86.0975	44
87.1012	1
99.0467	4
125.0006	12
146.9826	37
162.9481	2
166.0625	3
184.074	999
185.077	65
186.0764	10
282.0419	2
295.1947	2
300.0147	2
369.3369	26
370.3413	4
387.2107	3
391.3193	4
433.3063	1
492.3821	136
493.3851	38
494.389	6
515.3114	72
516.3148	19
517.3183	1
541.8406	3
542.3416	1
552.4954	90
553.4068	58
554.4091	13
555.4103	1
566.4195	1
571.3766	64
571.8785	40
572.3802	15
572.8816	3
573.377	2
574.3851	17
575.3889	31
576.3906	6
579.3646	2
579.8662	1
591.2986	2
636.356	10
637.3587	3
638.3578	1
650.3707	11
651.3728	3
655.272	1
714.3429	16
715.3448	3
847.0738	49
847.575	47
848.0781	24
848.5789	8
849.0798	4
849.5768	1
850.0836	1
850.583	1
855.0597	2
855.5635	2
856.0604	3
856.5638	3
857.0585	2
857.5612	1
871.0676	1
912.054	1
912.556	1
1103.797	52
1104.8004	34
1105.8037	12
1106.806	2
1114.7851	2
1115.2827	3
1115.7874	3
1116.2814	1
1122.7706	23
1123.2735	28
1123.7737	19
1124.2769	9
1124.7769	4
1125.2747	1
1125.7781	33
1126.7825	20
1127.7811	7
1130.7581	3
1131.2585	3
1131.7583	4
1132.2607	4
1132.7618	3
1133.2631	1
1153.2557	1
1153.7554	1
1154.2604	1
1156.7641	1
1157.2663	1
1168.7653	1
1187.749	12
1188.7528	8
1189.755	1
1193.762	1
1194.7605	1
