Mass spectrum: 5,6-Dimethylbenzimidazole; LC-ESI-QTOF; MS2; CE: 20;  [M+H]+
Name: 5,6-Dimethylbenzimidazole
Class: NA
Formula: C9H10N2
Exact mass: 146.0844
SMILES: CC1=CC2=C(C=C1C)N=CN2
InChI: InChI=1S/C9H10N2/c1-6-3-8-9(4-7(6)2)11-5-10-8/h3-5H,1-2H3,(H,10,11)
Instrument: Agilent 6560Â Ion Mobility Q-TOF LC/MS
Instrument type: LC-ESI-QTOF
Ms type: MS2
Ion mode: POSITIVE
Ionization: ESI
Collision energy: 20
Column name: Acquity CSHC18
Retention time: 0.200 min
Base peak: 147.0919
Precursor m/z: 147.0919
Precursor type: [M+H]+
Precursor intensity: 61.5
m/z	relative intensity
79.0388	224
79.0419	266
79.045	163
79.0481	102
79.0512	98
87.9025	387
87.9058	186
87.909	130
87.9123	79
120.0762	247
120.08	737
120.0838	499
120.0876	284
120.0914	284
120.0952	182
120.099	121
131.0539	135
131.0579	999
131.0618	625
131.0658	518
131.0698	331
131.0738	205
131.0778	51
146.5695	275
146.5737	126
147.0876	252
147.0918	191
147.096	98
