Mass spectrum: Oxo-phytodienoic acid; LC-ESI-QTOF; MS2; CE: 15.00;  [M-H]-
Name: Oxo-phytodienoic acid
Class: NA
Formula: C18H28O3
Exact mass: 292.2038
SMILES: CCC=CCC1C(C=CC1=O)CCCCCCCC(=O)O
InChI: InChI=1S/C18H28O3/c1-2-3-7-11-16-15(13-14-17(16)19)10-8-5-4-6-9-12-18(20)21/h3,7,13-16H,2,4-6,8-12H2,1H3,(H,20,21)
Instrument: Bruker MicrOTOF-Q
Instrument type: LC-ESI-QTOF
Ms type: MS2
Ion mode: NEGATIVE
Ionization: ESI
Collision energy: 15.00
Column name: Acquity CSHC18
Retention time: NA
Base peak: 291.1966
Precursor m/z: 291.1966
Precursor type: [M-H]-
m/z	relative intensity
165.1279	145
191.1444	25
191.1784	24
193.1307	25
247.2	353
248.2087	124
248.221	29
273.1836	127
291.0825	56
291.1977	999
292.1971	251
