Mass spectrum: Glucosamine 6-sulfate; ESI-TOF; MS2; CE: 6.0000000;  [M+H]+
Name: Glucosamine 6-sulfate
Class: NA
Formula: C6H13NO8S
Exact mass: 259.03619
SMILES: NC1C(O)OC(COS(O)(=O)=O)C(O)C1O
InChI: InChI=1S/C6H13NO8S/c7-3-5(9)4(8)2(15-6(3)10)1-14-16(11,12)13/h2-6,8-10H,1,7H2,(H,11,12,13)
Instrument: waters xevo g2 TOF
Instrument type: ESI-TOF
Ms type: MS2
Ion mode: POSITIVE
Ionization: ESI
Collision energy: 6.0000000
Column name: Acquity CSHC18
Retention time: 0.537 min
Base peak: 260.04419
Precursor m/z: 260.04419
Precursor type: [M+H]+
m/z	relative intensity
96.9619	8
111.9683	3
113.9645	26
130.0084	8
130.0097	10
138.9905	8
138.9909	7
141.9592	101
144.0672	7
154.9681	13
162.0767	88
180.0874	27
202.0646	30
232.9994	8
236.9401	5
242.0336	999
243.0345	67
244.0319	47
260.0442	208
261.0471	11
279.0062	6
297.9898	3
354.9873	9
439.1236	62
440.1249	7
441.1292	4
571.9989	6
573.0015	6
698.1588	13
778.1132	5
