Mass spectrum: Cytidine; LC-ESI-ITFT; MS2; CE: 100;  [M+H]+
Name: Cytidine
Class: Nucleosides, nucleotides, and analogues; Pyrimidine nucleosides
Formula: C9H13N3O5
Exact mass: 243.08552
SMILES: NC1=NC(=O)N(C=C1)[C@@H]1O[C@H](CO)[C@@H](O)[C@H]1O
InChI: InChI=1S/C9H13N3O5/c10-5-1-2-12(9(16)11-5)8-7(15)6(14)4(3-13)17-8/h1-2,4,6-8,13-15H,3H2,(H2,10,11,16)/t4-,6-,7-,8-/m1/s1
Instrument: Thermo Scientific Q-Exactive Focus
Instrument type: LC-ESI-ITFT
Ms type: MS2
Ion mode: POSITIVE
Ionization: ESI
Collision energy: 100
Column name: Acquity CSHC18
Retention time: 2.570 min
Base peak: 244.09280
Precursor m/z: 244.09280
Precursor type: [M+H]+
m/z	relative intensity
52.0188	999
53.9981	24
67.0296	231
68.0136	164
69.0088	24
69.0452	25
71.0132	17
95.0243	164
126.827	14
184.3771	13
