Mass spectrum: Putative_(2S,3S,4S,5R,6R)-6-[[(6aR,6bS,8aS,12aR,14aR,14bR)-8a-carboxy-4,4,6a,6b,14b-pentamethyl-11-methylidene-1,2,3,4a,5,6,7,8,9,10,12,12a,14,14a-tetradecahydropicen-3-yl]oxy]-3,5-dihydroxy-4-[(2S,3R,4S,5R)-3,4,5-trihydroxyoxan-2-yl]oxyoxane-2-carboxylic acid; LC-ESI-QTOF; MS2; CE: 20-40eV;  [M+NH4]+
Name: Putative_(2S,3S,4S,5R,6R)-6-[[(6aR,6bS,8aS,12aR,14aR,14bR)-8a-carboxy-4,4,6a,6b,14b-pentamethyl-11-methylidene-1,2,3,4a,5,6,7,8,9,10,12,12a,14,14a-tetradecahydropicen-3-yl]oxy]-3,5-dihydroxy-4-[(2S,3R,4S,5R)-3,4,5-trihydroxyoxan-2-yl]oxyoxane-2-carboxylic acid
Class: Triterpene saponins
Formula: C40H60O13
Exact mass: 748.4034
SMILES: C=C1CCC2(CCC3(C)C(=CCC4(C5(C)CCC(C(C)(C)C5(CCC43C)[H])(OC6(C(C(C(C(C(=O)O)(O6)[H])(O)[H])(OC7(C(C(C(CO7)(O)[H])(O)[H])(O)[H])[H])[H])(O)[H])[H])[H])[H])C2(C1)[H])C(=O)O
InChI: InChI=1S/C40H60O13/c1-19-9-14-40(35(48)49)16-15-38(5)20(21(40)17-19)7-8-24-37(4)12-11-25(36(2,3)23(37)10-13-39(24,38)6)51-34-29(45)30(28(44)31(53-34)32(46)47)52-33-27(43)26(42)22(41)18-50-33/h7,21-31,33-34,41-45H,1,8-18H2,2-6H3,(H,46,47)(H,48,49)
Instrument: Impact II, Bruker; Dionex 3000, Thermo Scientific
Instrument type: LC-ESI-QTOF
Ms type: MS2
Ion mode: POSITIVE
Ionization: ESI
Collision energy: 20-40eV
Column name: Acquity CSHC18
Retention time: 16.012 min
Base peak: 766.4357
Precursor m/z: 766.4357
Precursor type: [M+NH4]+
Precursor intensity: 5282.75
m/z	relative intensity
217.0967	51
229.0968	62
423.9595	83
765.476	102
766.4095	999
