Mass spectrum: Isorhamnetin 3-rutinoside; LC-ESI-QTOF; MS2; CE: 7-62eV;  [M-H]-
Name: Isorhamnetin 3-rutinoside
Class: Phenolics
Formula: C28H32O16
Exact mass: 624.1690
SMILES: CC1C(C(C(C(O1)OCC2C(C(C(C(O2)OC3=C(OC4=CC(=CC(=C4C3=O)O)O)C5=CC(=C(C=C5)O)OC)O)O)O)O)O)O
InChI: InChI=1S/C28H32O16/c1-9-18(32)21(35)23(37)27(41-9)40-8-16-19(33)22(36)24(38)28(43-16)44-26-20(34)17-13(31)6-11(29)7-15(17)42-25(26)10-3-4-12(30)14(5-10)39-2/h3-7,9,16,18-19,21-24,27-33,35-38H,8H2,1-2H3
Instrument: Bruker MicrOTOF-Q
Instrument type: LC-ESI-QTOF
Ms type: MS2
Ion mode: NEGATIVE
Ionization: ESI
Collision energy: 7-62eV
Column name: Acquity CSHC18
Retention time: 31.591 min
Base peak: 623.1613
Precursor m/z: 623.1613
Precursor type: [M-H]-
Precursor intensity: 37372.38
m/z	relative intensity
151.0044	17
163.0069	18
199.0428	18
200.0507	20
204.0446	20
211.0436	20
215.0382	21
216.0439	22
226.0246	22
227.0365	25
228.0363	26
242.0221	29
243.0395	31
244.0442	33
245.036	35
254.0227	37
255.0397	37
256.0384	39
257.0543	42
258.0518	44
259.0615	61
270.0268	61
271.0544	67
272.0369	79
273.0316	91
285.0455	91
286.053	95
287.0569	130
288.0571	156
299.0509	183
300.0585	184
301.0426	187
302.0338	227
313.0337	234
314.0613	397
315.0794	485
316.0747	728
317.0527	798
357.0565	847
623.1772	999
