Mass spectrum: CARNOSINE; LC-ESI-QFT; MS2; CE: 30eV;  [M-H]-
Name: CARNOSINE
Class: NA
Formula: C9H14N4O3
Exact mass: 226.10659
SMILES: NCCC(=O)N[C@@H](CC1=CN=CN1)C(O)=O
InChI: InChI=1S/C9H14N4O3/c10-2-1-8(14)13-7(9(15)16)3-6-4-11-5-12-6/h4-5,7H,1-3,10H2,(H,11,12)(H,13,14)(H,15,16)/t7-/m0/s1
Instrument: Q-Exactive Orbitrap, Thermo Scientfic; Ultimate 3000 HPLC, Thermo Scientfic
Instrument type: LC-ESI-QFT
Ms type: MS2
Ion mode: NEGATIVE
Ionization: ESI
Collision energy: 30eV
Column name: Acquity CSHC18
Retention time: 0.576 min
Base peak: 225.0993
Precursor m/z: 225.0993
Precursor type: [M-H]-
Precursor intensity: 189
m/z	relative intensity
52.7021	1
52.8043	2
52.8074	1
57.0676	1
58.0282	12
59.6509	1
61.9868	2
67.0286	30
70.0283	1
72.0076	2
75.2523	1
80.0364	2
81.0443	19
87.0549	19
88.0389	87
88.9865	5
90.1378	1
91.9104	2
93.0442	23
94.0481	1
94.9153	1
101.5244	1
104.9263	2
108.0551	2
110.0708	838
111.0679	2
111.0741	25
127.0498	57
128.0533	1
134.071	6
135.9006	12
136.0503	3
136.0867	2
137.0342	37
146.0709	3
152.0816	3
154.0609	999
155.0582	5
155.0641	47
156.9612	1
161.0816	6
163.0977	137
164.0817	21
164.101	5
171.9305	3
178.9393	1
179.9322	21
181.1084	71
182.1117	3
184.5883	1
197.9426	3
207.0878	12
208.0722	3
225.0987	377
226.1024	22
