Mass spectrum: Ceramide (d18:1/18:0); LC-ESI-ITFT; MS2; CE: 20;  [M+H]+
Name: Ceramide (d18:1/18:0)
Class: Lipids and lipid-like molecules; Sphingolipids; Ceramides
Formula: C36H71NO3
Exact mass: 565.54340
SMILES: CCCCCCCCCCCCCCCCCC(=O)N[C@@H](CO)[C@H](O)\C=C\CCCCCCCCCCCCC
InChI: InChI=1S/C36H71NO3/c1-3-5-7-9-11-13-15-17-18-20-22-24-26-28-30-32-36(40)37-34(33-38)35(39)31-29-27-25-23-21-19-16-14-12-10-8-6-4-2/h29,31,34-35,38-39H,3-28,30,32-33H2,1-2H3,(H,37,40)/b31-29+/t34-,35+/m0/s1
Instrument: Thermo Scientific Q-Exactive Focus
Instrument type: LC-ESI-ITFT
Ms type: MS2
Ion mode: POSITIVE
Ionization: ESI
Collision energy: 20
Column name: Acquity CSHC18
Retention time: 0.630 min
Base peak: 566.55066
Precursor m/z: 566.55066
Precursor type: [M+H]+
m/z	relative intensity
60.0449	10
211.2053	5
247.2416	10
252.2681	57
264.2683	999
282.2786	113
284.2941	20
518.5284	46
530.5286	123
548.5393	613
