Mass spectrum: Daidzein; LC-ESI-ITFT; MS2; CE: 60;  [M-H]-
Name: Daidzein
Class: Phenylpropanoids and polyketides; Isoflavonoids; Isoflav-2-enes
Formula: C15H10O4
Exact mass: 254.05791
SMILES: OC1=CC=C(C=C1)C1=COC2=C(C=CC(O)=C2)C1=O
InChI: InChI=1S/C15H10O4/c16-10-3-1-9(2-4-10)13-8-19-14-7-11(17)5-6-12(14)15(13)18/h1-8,16-17H
Instrument: Thermo Scientific Q-Exactive Focus
Instrument type: LC-ESI-ITFT
Ms type: MS2
Ion mode: NEGATIVE
Ionization: ESI
Collision energy: 60
Column name: Acquity CSHC18
Retention time: 2.032 min
Base peak: 253.05063
Precursor m/z: 253.05063
Precursor type: [M-H]-
m/z	relative intensity
65.002	407
89.0384	81
91.0177	842
117.0333	53
132.0205	999
133.0283	114
167.0493	252
180.0571	86
195.0443	562
223.0395	50
