Mass spectrum: Caffeine; LC-ESI-ITFT; MS2; CE: 10;  [M+H]+
Name: Caffeine
Class: Organoheterocyclic compounds; Imidazopyrimidines; Purines and purine derivatives
Formula: C8H10N4O2
Exact mass: 194.08038
SMILES: CN1C=NC2=C1C(=O)N(C)C(=O)N2C
InChI: InChI=1S/C8H10N4O2/c1-10-4-9-6-5(10)7(13)12(3)8(14)11(6)2/h4H,1-3H3
Instrument: Thermo Scientific Q-Exactive Focus
Instrument type: LC-ESI-ITFT
Ms type: MS2
Ion mode: POSITIVE
Ionization: ESI
Collision energy: 10
Column name: Acquity CSHC18
Retention time: 0.352 min
Base peak: 195.08765
Precursor m/z: 195.08765
Precursor type: [M+H]+
m/z	relative intensity
110.0716	3
138.0662	90
195.0878	999
