Mass spectrum: benzyl (2aS,4S,6aS,6bS,8aS,8bR,9S,9aR,12R,13aS,14aR,15aS,15bR)-4-acetoxy-13a-hydroxy-6a,8a,9,12-tetramethyldocosahydronaphtho[2'',1'':4',5']indeno[1',2':5,6]pyrano[3,2-b]pyridine-10(1H)-carboxylate; APCI-ITFT; MS2; CE: HCD 90;  [M-H]-
Name: benzyl (2aS,4S,6aS,6bS,8aS,8bR,9S,9aR,12R,13aS,14aR,15aS,15bR)-4-acetoxy-13a-hydroxy-6a,8a,9,12-tetramethyldocosahydronaphtho[2'',1'':4',5']indeno[1',2':5,6]pyrano[3,2-b]pyridine-10(1H)-carboxylate
Class: NA
Formula: C37H53NO6
Exact mass: 607.38729
SMILES: C[C@@]12[C@](CC[C@]3([H])[C@@]([H])2CC[C@@]4(C)[C@]([H])3C[C@@]([H])(O[C@](C[C@@H](C)CN6C(OCC7=CC=CC=C7)=O)(O)[C@@]6([H])[C@H]5C)[C@]54[H])([H])C[C@@H](OC(C)=O)CC1
InChI: InChI=1S/C37H53NO6/c1-22-19-37(41)33(38(20-22)34(40)42-21-25-9-7-6-8-10-25)23(2)32-31(44-37)18-30-28-12-11-26-17-27(43-24(3)39)13-15-35(26,4)29(28)14-16-36(30,32)5/h6-10,22-23,26-33,41H,11-21H2,1-5H3/t22-,23+,26+,27+,28-,29+,30+,31-,32+,33-,35+,36+,37+/m1/s1
Instrument: Orbitrap Elite
Instrument type: APCI-ITFT
Ms type: MS2
Ion mode: NEGATIVE
Ionization: APCI
Collision energy: HCD 90
Column name: Acquity CSHC18
Retention time: 0.191 min
Base peak: 606.38150
Precursor m/z: 606.38150
Precursor type: [M-H]-
Precursor intensity: 15221160
m/z	relative intensity
77.0396	2
83.0507	2
91.0556	20
92.0507	10
94.03	6
94.0667	6
95.0504	4
96.0456	10
96.0826	6
97.0666	22
98.0251	12
98.0617	90
99.0641	2
107.0507	83
108.0459	90
110.0615	105
111.0645	4
112.0773	36
122.0607	2
122.0977	5
136.0758	3
138.0553	4
138.0924	15
140.0721	66
140.1086	7
141.0751	2
154.0873	2
155.06	6
156.0674	6
158.0976	2
162.0917	2
164.1076	6
166.0878	31
167.0913	2
176.1094	12
182.0829	13
190.1228	2
204.1014	3
255.1771	22
256.1799	4
271.2071	17
273.1859	8
289.2162	5
295.207	3
297.2207	7
299.2	3
311.2357	4
313.1815	19
314.1829	3
315.1968	999
316.1998	168
317.206	3
329.2083	3
331.2274	467
332.23	81
341.2144	25
342.2134	4
343.2301	16
344.2316	3
355.2261	59
356.2302	13
357.2447	247
358.2467	46
359.2287	15
359.2524	14
360.2604	4
361.2746	2
368.2592	2
371.2593	49
372.2647	10
375.2183	2
378.2774	3
381.2404	5
385.2389	1
386.2711	6
392.2956	24
393.3006	5
394.3103	7
396.2529	5
399.2524	3
400.285	3
402.303	9
408.2889	5
410.3102	24
411.3051	5
412.2841	10
414.2615	6
418.279	5
420.2946	11
422.2665	5
428.3139	3
434.3112	23
435.3068	5
436.2871	28
437.2871	5
438.3005	133
439.3069	36
442.3292	2
450.3026	17
451.3056	4
452.3181	220
453.3233	55
454.3404	52
455.3184	5
456.2757	7
462.2963	3
464.284	2
468.309	65
469.3146	17
470.3271	265
471.3316	71
480.3083	34
481.3177	8
482.2961	27
483.2952	7
496.3114	6
498.3242	637
499.325	181
606.3845	3
