Mass spectrum: Baicalein; LC-ESI-QTOF; MS2; CE: 50eV;  [M-H]-
Name: Baicalein
Class: Flavone
Formula: C15H10O5
Exact mass: 270.0528
SMILES: C1=CC=C(C=C1)C2=CC(=O)C3=C(O2)C=C(C(=C3O)O)O
InChI: InChI=1S/C15H10O5/c16-9-6-11(8-4-2-1-3-5-8)20-12-7-10(17)14(18)15(19)13(9)12/h1-7,17-19H
Instrument: TIMS-TOF Pro, Bruker Daltonik; Elute UHPLC System, Bruker Daltonik
Instrument type: LC-ESI-QTOF
Ms type: MS2
Ion mode: NEGATIVE
Ionization: ESI
Collision energy: 50eV
Column name: Acquity CSHC18
Retention time: 7.654 min
Base peak: 269.0414
Precursor m/z: 269.0414
Precursor type: [M-H]-
Precursor intensity: 69468.34
m/z	relative intensity
31.29	1
41.0025	11
47.9991	1
51.022	3
53.0016	1
55.0189	1
59.1024	1
65.0394	19
66.0059	3
67.0179	8
68.9969	16
70.0011	1
77.0014	10
79.0178	3
80.9965	3
83.0111	3
94.0035	2
95.0121	20
96.0137	1
96.991	6
99.9512	1
101.0371	23
102.0412	2
104.9962	1
108.9902	2
109.9999	4
111.006	40
112.01	1
116.0558	1
117.0329	4
117.735	1
123.0074	5
124.9861	4
127.0534	2
129.0302	1
133.4829	1
135.0743	1
136.9849	23
137.1123	1
137.9944	1
139.0262	17
140.0282	2
141.0675	6
142.0279	1
143.0482	7
144.0513	1
145.0276	8
145.8071	1
147.25	1
151.0512	3
152.0547	2
153.9171	1
166.9965	2
167.4308	1
168.0496	1
169.0629	7
169.5614	2
171.045	3
171.6063	1
179.0467	5
184.0498	1
195.0436	6
195.7092	1
197.0571	7
199.0364	3
213.0508	3
223.0336	5
224.0426	1
225.0538	5
240.0338	1
241.0462	10
251.03	8
252.0402	1
268.0312	2
268.8759	1
269.0414	999
269.1901	1
269.2768	2
269.4262	2
