Mass spectrum: L-Valine; LC-ESI-ITFT; MS2; CE: 40;  [M+H]+
Name: L-Valine
Class: Organic acids and derivatives; Carboxylic acids and derivatives; Amino acids, peptides, and analogues
Formula: C5H11NO2
Exact mass: 117.07898
SMILES: CC(C)[C@H](N)C(O)=O
InChI: InChI=1S/C5H11NO2/c1-3(2)4(6)5(7)8/h3-4H,6H2,1-2H3,(H,7,8)/t4-/m0/s1
Instrument: Thermo Scientific Q-Exactive Focus
Instrument type: LC-ESI-ITFT
Ms type: MS2
Ion mode: POSITIVE
Ionization: ESI
Collision energy: 40
Column name: Acquity CSHC18
Retention time: 1.463 min
Base peak: 118.08626
Precursor m/z: 118.08626
Precursor type: [M+H]+
m/z	relative intensity
53.0392	94
55.0548	981
56.0501	749
57.0579	999
59.0497	38
72.0813	55
73.105	38
73.4426	41
103.5762	37
105.3442	36
