Mass spectrum: Folic acid; LC-ESI-QTOF; MS2; CE: 100;  [M-H]-
Name: Folic acid
Class: NA
Formula: C19H19N7O6
Exact mass: 441.1397
SMILES: C1=CC(=CC=C1C(=O)NC(CCC(=O)O)C(=O)O)NCC2=CN=C3C(=N2)C(=O)NC(=N3)N
InChI: InChI=1S/C19H19N7O6/c20-19-25-15-14(17(30)26-19)23-11(8-22-15)7-21-10-3-1-9(2-4-10)16(29)24-12(18(31)32)5-6-13(27)28/h1-4,8,12,21H,5-7H2,(H,24,29)(H,27,28)(H,31,32)(H3,20,22,25,26,30)
Instrument: impact II
Instrument type: LC-ESI-QTOF
Ms type: MS2
Ion mode: NEGATIVE
Ionization: ESI
Collision energy: 100
Column name: Acquity CSHC18
Retention time: 1.778 min
Base peak: 440.1326
Precursor m/z: 440.1326
Precursor type: [M-H]-
m/z	relative intensity
66.0106	343
91.0428	149
92.0506	905
105.0335	195
106.0399	101
117.0454	480
119.0358	123
132.0443	999
133.0505	210
147.0563	174
