Mass spectrum: D-fructose 6-phosphate; LC-ESI-QTOF; MS2; CE: 15;  [M-H]-
Name: D-fructose 6-phosphate
Class: NA
Formula: C6H13O9P
Exact mass: 260.0297
SMILES: C(C(C(C(C(=O)CO)O)O)O)OP(=O)(O)O
InChI: InChI=1S/C6H13O9P/c7-1-3(8)5(10)6(11)4(9)2-15-16(12,13)14/h4-7,9-11H,1-2H2,(H2,12,13,14)
Instrument: Bruker MicrOTOF-Q
Instrument type: LC-ESI-QTOF
Ms type: MS2
Ion mode: NEGATIVE
Ionization: ESI
Collision energy: 15
Column name: Acquity CSHC18
Retention time: NA
Base peak: 259.0224
Precursor m/z: 259.0224
Precursor type: [M-H]-
m/z	relative intensity
45.4023	81
50.4062	43
55.4777	54
57.0497	87
58.238	87
63.7078	45
65.9681	43
67.6655	66
74.7199	49
78.9567	195
92.3163	66
96.6727	60
96.9699	999
99.2344	70
138.9821	195
144.904	47
151.4664	45
165.328	37
225.0331	66
308.19	54
346.2145	60
370.0609	51
399.1134	49
412.6744	37
462.4232	39
508.3687	41
514.7679	56
596.4499	58
600.2516	45
630.7521	49
724.8147	49
769.6752	53
772.4561	47
803.0542	47
804.97	45
863.7381	58
899.161	39
899.9264	51
964.984	72
968.3913	68
970.1214	62
979.1139	41
