Mass spectrum: AMINOISOBUTANOATE; LC-ESI-QTOF; MS2; CE: 10;  [M+H]+
Name: AMINOISOBUTANOATE
Class: NA
Formula: C4H9NO2
Exact mass: 103.0633
SMILES: CC(CN)C(O)=O
InChI: InChI=1S/C4H9NO2/c1-3(2-5)4(6)7/h3H,2,5H2,1H3,(H,6,7)
Instrument: Agilent 6530Â Q-TOF LC/MS
Instrument type: LC-ESI-QTOF
Ms type: MS2
Ion mode: POSITIVE
Ionization: ESI
Collision energy: 10
Column name: NA
Retention time: 0.200 min
Base peak: 104.07062
Precursor m/z: 104.07062
Precursor type: [M+H]+
Precursor intensity: 28.5
m/z	relative intensity
40.6995	51
40.7199	15
41.6962	23
42.7725	8
44.0465	57
45.03	10
45.1402	23
47.2989	15
48.5349	15
49.3567	25
55.8086	8
56.3672	20
57.032	73
58.0645	245
58.6109	6
58.8748	6
59.1857	27
60.0393	73
60.0769	292
60.3449	13
60.3657	8
60.4159	39
60.4436	5
66.2651	1
68.0516	345
68.1106	23
73.0612	57
73.1044	3
75.2053	78
78.1015	11
79.5318	27
82.4787	73
82.5167	15
86.0582	277
86.136	6
91.3977	3
103.4173	3
103.9527	97
104.103	999
104.1944	18
104.2346	68
104.2648	15
104.369	34
104.3921	17
104.4193	3
104.8086	25
105.1145	23
105.4522	39
106.3756	15
107.1352	23
