Mass spectrum: Salicylic acid; LC-ESI-QTOF; MS2; CE: 15.00;  [M-H2O+H]+
Name: Salicylic acid
Class: NA
Formula: C7H6O3
Exact mass: 138.0317
SMILES: C1=CC=C(C(=C1)C(=O)O)O
InChI: InChI=1S/C7H6O3/c8-6-4-2-1-3-5(6)7(9)10/h1-4,8H,(H,9,10)
Instrument: Bruker MicrOTOF-Q
Instrument type: LC-ESI-QTOF
Ms type: MS2
Ion mode: POSITIVE
Ionization: ESI
Collision energy: 15.00
Column name: Acquity CSHC18
Retention time: NA
Base peak: 121.0284
Precursor m/z: 121.0284
Precursor type: [M-H2O+H]+
m/z	relative intensity
92.87	1
93.03	28
93.26	1
94.03	3
101.43	1
108.13	1
113.96	1
120.42	1
120.46	2
120.52	1
120.64	1
120.69	1
120.76	1
120.94	3
121.03	999
121.17	1
121.24	2
121.31	2
121.37	3
121.44	1
121.52	1
121.59	1
121.62	1
121.68	2
121.8	1
121.9	1
122.03	65
122.11	1
122.41	1
122.54	1
123.03	2
123.19	1
124.38	2
125.3	1
138.05	1
139.04	8
223.58	1
225.45	1
242.02	1
