Mass spectrum: N-Decanoyl-L-homoserine lactone; LC-ESI-ITFT; MS2; CE: 60;  [M+H]+
Name: N-Decanoyl-L-homoserine lactone
Class: NA
Formula: C14H25NO3
Exact mass: 255.18344
SMILES: CCCCCCCCCC(=O)N[C@H]1CCOC1=O
InChI: InChI=1S/C14H25NO3/c1-2-3-4-5-6-7-8-9-13(16)15-12-10-11-18-14(12)17/h12H,2-11H2,1H3,(H,15,16)/t12-/m0/s1
Instrument: Thermo Scientific Q-Exactive Focus
Instrument type: LC-ESI-ITFT
Ms type: MS2
Ion mode: POSITIVE
Ionization: ESI
Collision energy: 60
Column name: Acquity CSHC18
Retention time: 1.753 min
Base peak: 256.19073
Precursor m/z: 256.19073
Precursor type: [M+H]+
m/z	relative intensity
53.0028	157
53.0392	84
55.0548	262
56.05	999
57.0704	382
67.0547	413
74.0241	340
79.0546	169
81.0703	107
155.7803	52
