Mass spectrum: Umbelliferone; LC-ESI-ITFT; MS2; CE: 100;  [M+H]+
Name: Umbelliferone
Class: Phenylpropanoids and polyketides; Coumarins and derivatives; Hydroxycoumarins
Formula: C9H6O3
Exact mass: 162.03169
SMILES: OC1=CC2=C(C=C1)C=CC(=O)O2
InChI: InChI=1S/C9H6O3/c10-7-3-1-6-2-4-9(11)12-8(6)5-7/h1-5,10H
Instrument: Thermo Scientific Q-Exactive Focus
Instrument type: LC-ESI-ITFT
Ms type: MS2
Ion mode: POSITIVE
Ionization: ESI
Collision energy: 100
Column name: Acquity CSHC18
Retention time: 2.570 min
Base peak: 163.03897
Precursor m/z: 163.03897
Precursor type: [M+H]+
m/z	relative intensity
50.0156	999
51.0235	565
53.0027	474
61.0077	322
62.0156	468
63.0234	296
65.0026	94
66.0104	32
70.3624	26
74.0155	245
