Mass spectrum: 13,14-dihydro-15-keto Prostaglandin D1; ESI-TOF; MS2; CE: 0.6458333;  [M+H]+
Name: 13,14-dihydro-15-keto Prostaglandin D1
Class: NA
Formula: C20H34O5
Exact mass: 354.24062
SMILES: CCCCCC(=O)CC[C@H]1C(=O)CC(O)C1CCCCCCC(=O)O
InChI: InChI=1S/C20H34O5/c1-2-3-6-9-15(21)12-13-17-16(18(22)14-19(17)23)10-7-4-5-8-11-20(24)25/h16-18,22H,2-14H2,1H3,(H,24,25)/t16?,17-,18?/m1/s1
Instrument: waters xevo g2 TOF
Instrument type: ESI-TOF
Ms type: MS2
Ion mode: POSITIVE
Ionization: ESI
Collision energy: 0.6458333
Column name: Acquity CSHC18
Retention time: 3.711 min
Base peak: 355.24862
Precursor m/z: 355.24862
Precursor type: [M+H]+
m/z	relative intensity
79.0546	19
95.0495	19
97.066	18
99.081	96
109.0649	30
127.1132	64
146.1057	6
161.1348	42
173.1302	57
179.0917	34
181.1015	5
189.1466	77
190.1314	10
191.1445	60
193.1412	170
201.1442	16
206.1072	7
207.1361	24
217.1619	49
221.1541	57
241.1924	11
245.1544	13
249.0799	105
261.0783	21
267.0908	72
277.1943	10
282.0562	23
307.2237	2
319.227	999
320.2303	214
337.2376	65
338.2409	17
