Mass spectrum: N-FORMYL-L-METHIONINE; LC-ESI-QFT; MS2; CE: 30eV;  [M+H]+
Name: N-FORMYL-L-METHIONINE
Class: NA
Formula: C6H11NO3S
Exact mass: 177.04596
SMILES: CSCC[C@@H](NC=O)C(O)=O
InChI: InChI=1S/C6H11NO3S/c1-11-3-2-5(6(9)10)7-4-8/h4-5H,2-3H2,1H3,(H,7,8)(H,9,10)/t5-/m1/s1
Instrument: Q-Exactive Orbitrap, Thermo Scientfic; Ultimate 3000 HPLC, Thermo Scientfic
Instrument type: LC-ESI-QFT
Ms type: MS2
Ion mode: POSITIVE
Ionization: ESI
Collision energy: 30eV
Column name: Acquity CSHC18
Retention time: 2.506 min
Base peak: 178.0532
Precursor m/z: 178.0532
Precursor type: [M+H]+
Precursor intensity: 101
m/z	relative intensity
54.8303	4
55.9353	9
56.0503	282
56.4891	4
57.0537	6
57.2376	4
58.066	5
61.0115	166
71.0736	4
74.0245	9
74.0608	12
77.4389	4
84.0452	280
85.0487	9
87.0273	8
88.0224	9
102.0556	132
104.0535	999
105.0569	23
110.1611	5
113.9643	24
114.972	98
115.9722	19
115.9756	27
116.9323	5
119.0498	8
127.9803	9
128.3826	5
130.0503	860
131.0537	13
131.9748	7
132.9594	25
133.0323	361
134.036	10
135.9459	8
141.959	8
150.0588	301
150.2446	5
151.0625	7
152.717	6
153.9565	25
154.9569	5
155.9752	40
159.9468	5
159.9699	10
160.0432	8
177.1278	5
177.9568	128
178.1078	6
178.1231	72
179.0639	8
179.1068	9
