Mass spectrum: L-Phenylalanine; LC-ESI-QTOF; MS2; CE: 15.00;  [M+H]+
Name: L-Phenylalanine
Class: NA
Formula: C9H11NO2
Exact mass: 165.0790
SMILES: C1=CC=C(C=C1)CC(C(=O)O)N
InChI: InChI=1S/C9H11NO2/c10-8(9(11)12)6-7-4-2-1-3-5-7/h1-5,8H,6,10H2,(H,11,12)
Instrument: Bruker MicrOTOF-Q
Instrument type: LC-ESI-QTOF
Ms type: MS2
Ion mode: POSITIVE
Ionization: ESI
Collision energy: 15.00
Column name: Acquity CSHC18
Retention time: NA
Base peak: 166.0863
Precursor m/z: 166.0863
Precursor type: [M+H]+
m/z	relative intensity
91.05	13
92.05	1
93.07	9
94.07	1
102.04	4
103.05	194
103.24	1
103.3	1
104.05	13
105.07	1
107.05	17
108.05	1
118.06	7
119.07	5
119.49	1
119.53	1
119.63	1
120.08	999
120.21	2
120.31	2
120.36	2
120.42	2
120.47	1
120.58	1
120.8	1
120.87	1
120.98	1
121.08	81
121.29	1
122.08	1
131.05	12
132.05	1
149.06	2
166.09	2
