Mass spectrum: Prenylnaringenin; LC-ESI-QTOF; MS2; CE: 15.00;  [M-C4H8+H]+
Name: Prenylnaringenin
Class: NA
Formula: C20H20O5
Exact mass: 340.1311
SMILES: CC(=CCC1(CC(=O)C2=C(C=C(C=C2O1)O)O)C3=CC=C(C=C3)O)C
InChI: InChI=1S/C20H20O5/c1-12(2)7-8-20(13-3-5-14(21)6-4-13)11-17(24)19-16(23)9-15(22)10-18(19)25-20/h3-7,9-10,21-23H,8,11H2,1-2H3
Instrument: Bruker MicrOTOF-Q
Instrument type: LC-ESI-QTOF
Ms type: MS2
Ion mode: POSITIVE
Ionization: ESI
Collision energy: 15.00
Column name: Acquity CSHC18
Retention time: NA
Base peak: 285.0757
Precursor m/z: 285.0757
Precursor type: [M-C4H8+H]+
m/z	relative intensity
121.06	69
165.02	999
166.02	71
171.04	36
179.03	46
183.03	22
197.06	45
239.15	27
243.08	21
267.07	36
285.17	30
286.07	22
