Mass spectrum: Lyso SM (d18:1); ESI-TOF; MS2; CE: 0.6458333;  [M+H]+
Name: Lyso SM (d18:1)
Class: NA
Formula: C23H49N2O5P
Exact mass: 464.33791
SMILES: [H]OC([H])(C([H])=C([H])C([H])([H])C([H])([H])C([H])([H])C([H])([H])C([H])([H])C([H])([H])C([H])([H])C([H])([H])C([H])([H])C([H])([H])C([H])([H])C([H])([H])C([H])([H])[H])C([H])(N([H])[H])C([H])([H])OP(=O)([O-])OC([H])([H])C([H])([H])[N+](C([H])([H])[H])(C([H])([H])[H])C([H])([H])[H]
InChI: InChI=1S/C23H49N2O5P/c1-5-6-7-8-9-10-11-12-13-14-15-16-17-18-23(26)22(24)21-30-31(27,28)29-20-19-25(2,3)4/h17-18,22-23,26H,5-16,19-21,24H2,1-4H3
Instrument: waters xevo g2 TOF
Instrument type: ESI-TOF
Ms type: MS2
Ion mode: POSITIVE
Ionization: ESI
Collision energy: 0.6458333
Column name: Acquity CSHC18
Retention time: 4.263 min
Base peak: 465.34591
Precursor m/z: 465.34591
Precursor type: [M+H]+
m/z	relative intensity
81.0708	3
82.0657	9
86.0967	172
87.0998	10
93.0703	3
95.0849	3
96.0813	4
98.9844	28
104.1074	84
118.9207	8
125.0007	131
126.0033	2
129.5241	2
131.0194	6
134.0243	1
140.0248	10
146.9815	3
149.0302	6
162.9462	11
166.0625	43
184.0966	999
185.0768	186
186.0779	29
211.0351	1
222.0198	2
237.9937	4
243.145	5
243.6448	2
247.163	2
262.2543	4
264.2689	85
265.2724	35
266.2764	2
283.9989	5
304.2614	4
382.1822	9
383.1841	2
388.2596	2
406.2709	3
418.3104	9
419.3128	2
428.2532	2
430.3078	18
431.3108	4
447.3348	108
448.3352	14
465.3462	260
466.3489	72
