Mass spectrum: Serine; LC-ESI-QTOF; MS2; CE: 15 / 50;  [M+H]+
Name: Serine
Class: NA
Formula: C3H7NO3
Exact mass: 105.04259
SMILES: C(C(C(=O)O)N)O
InChI: InChI=1S/C3H7NO3/c4-2(1-5)3(6)7/h2,5H,1,4H2,(H,6,7)
Instrument: impact II
Instrument type: LC-ESI-QTOF
Ms type: MS2
Ion mode: POSITIVE
Ionization: ESI
Collision energy: 15 / 50
Column name: Acquity CSHC18
Retention time: 0.610 min
Base peak: 106.04990
Precursor m/z: 106.04990
Precursor type: [M+H]+
m/z	relative intensity
46.0294	3
60.0453	999
60.1077	2
61.0485	17
62.0506	3
70.0299	21
88.0398	69
88.0517	3
104.1075	3
106.0505	32
107.0522	4
