Mass spectrum: Feruloyl galactaric acid; LC-ESI-ITFT; MS2; CE: 35eV;  [M+H]+
Name: Feruloyl galactaric acid
Class: Hydroxycinnamic ester
Formula: C16H18O11
Exact mass: 386.0849
SMILES: COC1=C(C=CC(=C1)C=CC(=O)OC(C(C(C(C(=O)O)O)O)O)C(=O)O)O
InChI: InChI=1S/C16H18O11/c1-26-9-6-7(2-4-8(9)17)3-5-10(18)27-14(16(24)25)12(20)11(19)13(21)15(22)23/h2-6,11-14,17,19-21H,1H3,(H,22,23)(H,24,25)
Instrument: LTQ Orbitrap XL, Thermo Scientfic; Dionex Ultimate 300
Instrument type: LC-ESI-ITFT
Ms type: MS2
Ion mode: POSITIVE
Ionization: ESI
Collision energy: 35eV
Column name: Lichrospher C18 Column 250*4 5um, Interchim
Retention time: 22.98 min
Base peak: 387.0923
Precursor m/z: 387.0923
Precursor type: [M+H]+
m/z	relative intensity
176.8956	633
206.0594	239
207.038	773
224.2381	351
225.1281	999
227.1407	112
237.7839	112
242.8001	253
267.2015	168
285.2476	126
292.9706	196
294.9976	225
297.0752	182
306.3535	182
311.8202	126
324.8852	182
327.1521	253
339.058	211
341.0666	379
342.9321	928
345.2032	182
350.0544	126
351.0907	745
352.17	140
354.9855	211
359.1665	168
