Mass spectrum: Lyciumoside IV; LC-ESI-QTOF; MS2; CE: 20eV; [M+NH4]+
Name: Lyciumoside IV
Class: Diterpene
Formula: C38H64O16
Exact mass: 776.4194
SMILES: CC1C(C(C(C(O1)OC2C(OC(C(C2O)O)OC(C)(CCC=C(C)CCC=C(C)CCC=C(C)COC3C(C(C(C(O3)CO)O)O)O)C=C)CO)O)O)O
InChI: InChI=1S/C38H64O16/c1-7-38(6,54-37-33(48)30(45)34(25(18-40)52-37)53-36-32(47)28(43)26(41)23(5)50-36)16-10-15-21(3)12-8-11-20(2)13-9-14-22(4)19-49-35-31(46)29(44)27(42)24(17-39)51-35/h7,11,14-15,23-37,39-48H,1,8-10,12-13,16-19H2,2-6H3
Instrument: Microtof-q MS
Instrument type: LC-ESI-QTOF
Ms type: MS2
Ion mode: POSITIVE
Ionization: ESI
Collision energy: 20eV
Column name: Acquity CSH C18 column (particle size 1.7 μm, column length 2.1 × 50 mm) (Waters)
Retention time: NA
Base peak: 794.4547
Precursor m/z: 794.4547
Precursor type: [M+NH4]+
m/z	relative intensity
129.0550	46
149.1322	60
161.1322	47
163.1477	68
175.1481	46
177.1640	52
189.1632	42
203.1786	32
215.1790	99
229.1944	20
231.2097	43
255.0873	35
271.2419	999
272.2455	186
273.0972	146
289.2525	202
290.2553	37
291.1081	23
309.1184	559
310.1207	64
327.1280	33
381.2775	25
399.2886	51
417.2998	177
418.3028	44
433.2940	36
435.3098	42
451.3064	35
471.1711	33
597.3621	22
794.4531	28
