Mass spectrum: Dihydrocamalexic acid; LC-ESI-QTOF; MS2; CE: 15.00;  [M+H]+
Name: Dihydrocamalexic acid
Class: NA
Formula: C12H10N2O2S
Exact mass: 246.0463
SMILES: C1C(N=C(S1)C2=CNC3=CC=CC=C32)C(=O)O
InChI: InChI=1S/C12H10N2O2S/c15-12(16)10-6-17-11(14-10)8-5-13-9-4-2-1-3-7(8)9/h1-5,10,13H,6H2,(H,15,16)
Instrument: Bruker MicrOTOF-Q
Instrument type: LC-ESI-QTOF
Ms type: MS2
Ion mode: POSITIVE
Ionization: ESI
Collision energy: 15.00
Column name: Acquity CSHC18
Retention time: NA
Base peak: 247.0536
Precursor m/z: 247.0536
Precursor type: [M+H]+
m/z	relative intensity
116.0507	1
142.0581	2
143.0611	454
144.0633	36
145.0477	1
148.07	1
160.0241	3
168.0702	2
169.0789	3
174.0373	1
174.0931	1
183.1162	1
185.0792	1
186.0827	1
188.0739	5
200.8982	2
200.9584	3
201.0496	999
201.2835	1
201.4318	2
201.4985	1
201.956	1
202.052	118
202.6086	1
203.046	7
232.0864	4
233.0911	1
247.0556	771
247.3987	2
248.0585	114
249.0517	10
