Mass spectrum: LIPOAMIDE; LC-ESI-QTOF; MS2; CE: 10;  [M+H]+
Name: LIPOAMIDE
Class: NA
Formula: C8H15NOS2
Exact mass: 205.05951
SMILES: NC(=O)CCCCC1CCSS1
InChI: InChI=1S/C8H15NOS2/c9-8(10)4-2-1-3-7-5-6-11-12-7/h7H,1-6H2,(H2,9,10)
Instrument: Agilent 6530Â Q-TOF LC/MS
Instrument type: LC-ESI-QTOF
Ms type: MS2
Ion mode: POSITIVE
Ionization: ESI
Collision energy: 10
Column name: NA
Retention time: 0.200 min
Base peak: 206.06638
Precursor m/z: 206.06638
Precursor type: [M+H]+
Precursor intensity: 183.5
m/z	relative intensity
41.0405	34
43.0348	34
44.0207	35
45.0047	35
46.9993	36
55.0581	37
56.0534	39
57.0477	39
59.0245	40
61.0202	41
65.0488	41
67.0751	44
69.0823	45
70.0695	46
71.0467	46
73.0264	50
77.0548	54
78.0491	55
79.0376	56
81.0855	58
83.0776	62
84.0801	68
85.026	69
87.0353	69
91.0723	70
92.0567	75
93.1017	80
95.1086	85
97.0693	87
98.1081	87
99.0385	88
101.4477	89
102.0525	95
103.017	95
105.0759	97
105.3998	102
105.7932	106
106.1012	109
107.1012	111
109.0195	113
110.0271	114
111.0484	117
112.0835	126
113.0503	128
115.0701	132
119.0102	132
121.0761	140
122.0903	142
123.1152	158
124.0868	196
125.0527	220
127.2184	222
127.61	264
127.733	276
128.0312	284
128.983	294
135.034	327
137.0796	336
138.0812	369
139.0621	379
140.1327	430
145.0255	576
147.0408	597
155.0736	669
161.522	698
162.3267	718
171.1164	755
171.5135	882
172.0393	902
177.0326	960
189.5584	992
190.415	999
206.1116	34
