Mass spectrum: (R)- Norreticuline; ESI-QTOF; MS2; CE: 1, 35, 60;  [M+H]+
Name: (R)- Norreticuline
Class: Benzylisoquinoline alkaloid
Formula: C18H21NO4
Exact mass: 315.1471
SMILES: COC1=C(C=C(C=C1)CC2C3=CC(=C(C=C3CCN2)OC)O)O
InChI: InChI=1S/C18H21NO4/c1-22-17-4-3-11(8-15(17)20)7-14-13-10-16(21)18(23-2)9-12(13)5-6-19-14/h3-4,8-10,14,19-21H,5-7H2,1-2H3
Instrument: AB Sciex TripleToF 5500
Instrument type: ESI-QTOF
Ms type: MS2
Ion mode: POSITIVE
Ionization: ESI
Collision energy: 1, 35, 60
Column name: Acquity CSHC18
Retention time: 4.407 min
Base peak: 316.1494
Precursor m/z: 316.1494
Precursor type: [M+H]+
Precursor intensity: 1445662
m/z	relative intensity
94.0367	115
131.0472	248
135.0538	313
177.5239	593
239.0851	999
