Mass spectrum: 3-Glc-28-Ara-Rha-Xyl-Medicagenic acid; ESI-QTOF; MS2; CE: 30 eV;  [M-H]-
Name: 3-Glc-28-Ara-Rha-Xyl-Medicagenic acid
Class: Saponin
Formula: C52H82O23
Exact mass: 1074.5247
SMILES: CC1(C(C(C(C(O1)(OC2(C(C(COC2(OC(C34CCC(C)(C)CC4(C5=CCC6(C7(C)CC(C(C(C)(C7(CCC6(C)C5(C)CC3)[H])C(=O)O)(OC8(C(C(C(C(CO)(O8)[H])(O)[H])(O)[H])(O)[H])[H])[H])(O)[H])[H])[H])=O)[H])(O)[H])(O)[H])[H])[H])(O)[H])(O)[H])(OC9(C(C(C(CO9)(O)[H])(O)[H])(O)[H])[H])[H])[H]
InChI: InChI=1S/C52H82O23/c1-21-38(72-41-35(62)30(57)25(55)19-68-41)34(61)37(64)42(70-21)73-39-31(58)26(56)20-69-44(39)75-46(67)52-14-12-47(2,3)16-23(52)22-8-9-28-48(4)17-24(54)40(74-43-36(63)33(60)32(59)27(18-53)71-43)51(7,45(65)66)29(48)10-11-50(28,6)49(22,5)13-15-52/h8,21,23-44,53-64H,9-20H2,1-7H3,(H,65,66)
Instrument: Synapt (HDMS 1st gen)
Instrument type: ESI-QTOF
Ms type: MS2
Ion mode: NEGATIVE
Ionization: ESI
Collision energy: 30 eV
Column name: Acquity CSHC18
Retention time: 19.957 min
Base peak: 1073.5140
Precursor m/z: 1073.5140
Precursor type: [M-H]-
Precursor intensity: 3847.5
m/z	relative intensity
439.3193	9
1073.5244	9
1073.9197	999
