Mass spectrum: L-Valine; LC-ESI-ITFT; MS2; CE: 30;  [M+H]+
Name: L-Valine
Class: Organic acids and derivatives; Carboxylic acids and derivatives; Amino acids, peptides, and analogues
Formula: C5H11NO2
Exact mass: 117.07898
SMILES: CC(C)[C@H](N)C(O)=O
InChI: InChI=1S/C5H11NO2/c1-3(2)4(6)5(7)8/h3-4H,6H2,1-2H3,(H,7,8)/t4-/m0/s1
Instrument: Thermo Scientific Q-Exactive Focus
Instrument type: LC-ESI-ITFT
Ms type: MS2
Ion mode: POSITIVE
Ionization: ESI
Collision energy: 30
Column name: Acquity CSHC18
Retention time: 0.914 min
Base peak: 118.08626
Precursor m/z: 118.08626
Precursor type: [M+H]+
m/z	relative intensity
52.6398	7
53.0392	63
55.0548	999
56.05	161
57.0579	480
59.0497	38
72.0812	298
92.5227	12
95.1127	8
129.0772	8
