Mass spectrum: Quercetin-3-(2''-Apiosyl-6''rhamnosylglucoside); LC-ESI-ITFT; MS2; CE: 35eV;  [M-H]-
Name: Quercetin-3-(2''-Apiosyl-6''rhamnosylglucoside)
Class: Flavonoid
Formula: C32H38O20
Exact mass: 742.1956
SMILES: CC1C(C(C(C(O1)OCC2C(C(C(C(O2)OC3=C(OC4=CC(=CC(=C4C3=O)O)O)C5=CC(=C(C=C5)O)O)O)O)O)OC6C(C(CO6)(CO)O)O)O)O
InChI: InChI=1S/C32H38O20/c1-10-19(38)23(42)27(52-31-28(44)32(45,8-33)9-47-31)30(48-10)46-7-17-20(39)22(41)24(43)29(50-17)51-26-21(40)18-15(37)5-12(34)6-16(18)49-25(26)11-2-3-13(35)14(36)4-11/h2-6,10,17,19-20,22-24,27-31,33-39,41-45H,7-9H2,1H3
Instrument: LTQ Orbitrap XL, Thermo Scientfic; Dionex Ultimate 300
Instrument type: LC-ESI-ITFT
Ms type: MS2
Ion mode: NEGATIVE
Ionization: ESI
Collision energy: 35eV
Column name: Lichrospher C18 Column 250*4 5um, Interchim
Retention time: 45.065 min
Base peak: 741.1887
Precursor m/z: 741.1887
Precursor type: [M-H]-
m/z	relative intensity
741.2576	999
