Mass spectrum: Sugiol; LC-ESI-QFT; MS2; CE: 15,30,45 (NCE);  [2M+H]+
Name: Sugiol
Class: NA
Formula: C20H28O2
Exact mass: 300.2089
SMILES: CC(C)C1=CC2=C(C=C1O)C1(C)CCCC(C)(C)C1CC2=O
InChI: InChI=1S/C20H28O2/c1-12(2)13-9-14-15(10-16(13)21)20(5)8-6-7-19(3,4)18(20)11-17(14)22/h9-10,12,18,21H,6-8,11H2,1-5H3
Instrument: QE Focus, Thermo Scientfic; UPLC I-Class, Waters
Instrument type: LC-ESI-QFT
Ms type: MS2
Ion mode: POSITIVE
Ionization: ESI
Collision energy: 15,30,45 (NCE)
Column name: Acquity CSHC18
Retention time: 4.434 min
Base peak: 601.4249
Precursor m/z: 601.4249
Precursor type: [2M+H]+
Precursor intensity: 1843343
m/z	relative intensity
53.5232	2
55.7804	2
62.5697	2
83.086	4
119.7762	2
123.1171	13
128.7048	2
163.0754	17
171.0796	5
185.0956	3
199.1126	2
205.1227	4
213.1266	11
259.1693	39
298.8446	2
301.2162	999
382.2177	3
434.217	3
