Mass spectrum: PURINE; LC-ESI-QFT; MS2; CE: 30eV;  [M+H]+
Name: PURINE
Class: NA
Formula: C5H4N4
Exact mass: 120.04360
SMILES: N1C=NC2=C1C=NC=N2
InChI: InChI=1S/C5H4N4/c1-4-5(8-2-6-1)9-3-7-4/h1-3H,(H,6,7,8,9)
Instrument: Q-Exactive Orbitrap, Thermo Scientfic; Ultimate 3000 HPLC, Thermo Scientfic
Instrument type: LC-ESI-QFT
Ms type: MS2
Ion mode: POSITIVE
Ionization: ESI
Collision energy: 30eV
Column name: Acquity CSHC18
Retention time: 1.121 min
Base peak: 121.0509
Precursor m/z: 121.0509
Precursor type: [M+H]+
Precursor intensity: 143
m/z	relative intensity
54.2787	15
56.5186	17
60.5433	17
61.8752	19
67.0298	186
73.8432	17
75.8185	14
76.4394	13
83.2062	14
90.9384	18
91.0125	16
93.7837	15
94.0406	890
95.0493	14
122.0443	19
122.0483	262
122.0546	999
124.4802	18
135.0182	17
