Mass spectrum: Phthalide, 1(3H)-Isobenzofuranone; LC-ESI-QTOF; MS2; CE: 15.00;  [M+H]+
Name: Phthalide, 1(3H)-Isobenzofuranone
Class: NA
Formula: C8H6O2
Exact mass: 134.0368
SMILES: C1C2=CC=CC=C2C(=O)O1
InChI: InChI=1S/C8H6O2/c9-8-7-4-2-1-3-6(7)5-10-8/h1-4H,5H2
Instrument: Bruker MicrOTOF-Q
Instrument type: LC-ESI-QTOF
Ms type: MS2
Ion mode: POSITIVE
Ionization: ESI
Collision energy: 15.00
Column name: Acquity CSHC18
Retention time: NA
Base peak: 135.0441
Precursor m/z: 135.0441
Precursor type: [M+H]+
m/z	relative intensity
107.045	2
133.027	123
134.0306	11
135.043	999
135.277	1
136.0461	93
137.0462	2
