Mass spectrum: THYROTROPIN RELEASING HORMONE; LC-ESI-QFT; MS2; CE: 30eV;  [M+H]+
Name: THYROTROPIN RELEASING HORMONE
Class: NA
Formula: C16H22N6O4
Exact mass: 362.17025
SMILES: C1CC(N(C1)C(=O)C(CC2=CN=CN2)NC(=O)C3CCC(=O)N3)C(=O)N
InChI: InChI=1S/C16H22N6O4/c17-14(24)12-2-1-5-22(12)16(26)11(6-9-7-18-8-19-9)21-15(25)10-3-4-13(23)20-10/h7-8,10-12H,1-6H2,(H2,17,24)(H,18,19)(H,20,23)(H,21,25)
Instrument: Q-Exactive Orbitrap, Thermo Scientfic; Ultimate 3000 HPLC, Thermo Scientfic
Instrument type: LC-ESI-QFT
Ms type: MS2
Ion mode: POSITIVE
Ionization: ESI
Collision energy: 30eV
Column name: Acquity CSHC18
Retention time: 1.091 min
Base peak: 363.1775
Precursor m/z: 363.1775
Precursor type: [M+H]+
Precursor intensity: 196
m/z	relative intensity
51.4305	3
62.705	4
63.5682	4
64.6732	4
65.2565	3
66.3143	4
69.0893	5
70.0659	999
71.0693	8
71.4936	4
84.0448	36
87.5159	6
110.0718	527
114.0556	7
114.8276	5
116.0904	91
116.608	5
120.799	4
131.6117	4
166.0614	345
167.0646	5
176.0822	381
182.7145	5
184.515	5
203.0927	12
204.0773	208
205.1089	12
222.1077	149
231.0874	16
232.0718	5
234.1352	36
235.1195	7
250.1025	172
252.1453	7
262.1298	11
263.1143	244
328.14	9
338.9689	5
345.1687	6
346.1519	75
363.1783	731
364.1819	48
384.7539	5
