Mass spectrum: p-Hydroxyphenylacetic acid; LC-ESI-ITFT; MS2; CE: 100;  [M-H]-
Name: p-Hydroxyphenylacetic acid
Class: Benzenoids; Phenols; 1-hydroxy-2-unsubstituted benzenoids
Formula: C8H8O3
Exact mass: 152.04734
SMILES: OC(=O)CC1=CC=C(O)C=C1
InChI: InChI=1S/C8H8O3/c9-7-3-1-6(2-4-7)5-8(10)11/h1-4,9H,5H2,(H,10,11)
Instrument: Thermo Scientific Q-Exactive Focus
Instrument type: LC-ESI-ITFT
Ms type: MS2
Ion mode: NEGATIVE
Ionization: ESI
Collision energy: 100
Column name: Acquity CSHC18
Retention time: 2.588 min
Base peak: 151.04007
Precursor m/z: 151.04007
Precursor type: [M-H]-
m/z	relative intensity
57.6174	714
60.3958	688
62.1721	701
63.5148	713
64.7953	715
104.0757	999
120.9842	779
121.1962	782
150.4206	864
162.7901	777
