Mass spectrum: Cumambranolide-8ß-sarracinoyloxy; LC-ESI-ITFT; MS2; CE: 50eV;  [M+H]+
Name: Cumambranolide-8ß-sarracinoyloxy
Class: Sesquiterpenelactone; Guaianolide
Formula: C20H26O6
Exact mass: 362.1729
SMILES: C\C=C(\CO)C(=O)O[C@@H]1C[C@@](C)(O)[C@@H]3CC=C(C)[C@@H]3[C@H]2OC(=O)C(=C)[C@H]12
InChI: InChI=1S/C20H26O6/c1-5-12(9-21)19(23)25-14-8-20(4,24)13-7-6-10(2)15(13)17-16(14)11(3)18(22)26-17/h5-6,13-17,21,24H,3,7-9H2,1-2,4H3/b12-5-/t13-,14-,15+,16-,17-,20-/m1/s1
Instrument: Q Exactive Plus, ThermoFisher Scientific
Instrument type: LC-ESI-ITFT
Ms type: MS2
Ion mode: POSITIVE
Ionization: ESI
Collision energy: 50eV
Column name: Acquity CSHC18
Retention time: 6.587 min
Base peak: 363.1806
Precursor m/z: 363.1806
Precursor type: [M+H]+
Precursor intensity: 1533197000
m/z	relative intensity
68.7428	8
81.0707	10
93.0705	12
95.086	11
97.4352	1
99.0449	18
105.07	6
107.0496	4
107.0864	29
111.0803	5
117.0549	5
119.0856	2
123.0444	7
128.0628	2
129.0693	3
131.0856	7
133.1013	7
143.0851	75
145.0647	4
145.1012	130
147.1162	22
149.0587	10
153.0545	130
157.1019	25
159.0796	4
159.1176	52
161.0966	81
161.1314	9
163.0753	1
167.0699	5
169.1013	13
171.0811	27
173.1327	15
175.0763	2
181.1003	2
183.1165	113
185.0972	5
185.1329	82
187.0765	14
187.1125	115
189.0919	399
190.0947	2
193.1008	7
201.0897	6
201.1274	148
203.106	4
203.1414	21
205.1219	21
207.1009	5
211.1127	103
219.1369	18
229.1238	999
230.1239	6
231.137	2
247.1332	309
249.15	4
265.1434	14
281.1529	2
299.1616	2
309.1463	1
327.157	6
363.1809	4
