Mass spectrum: N-Methylnicotinamide; ESI-TOF; MS2; CE: 0.6458333;  [M+H]+
Name: N-Methylnicotinamide
Class: NA
Formula: C7H8N2O
Exact mass: 136.06366
SMILES: CNC(=O)C1=CN=CC=C1
InChI: InChI=1S/C7H8N2O/c1-8-7(10)6-3-2-4-9-5-6/h2-5H,1H3,(H,8,10)
Instrument: waters xevo g2 TOF
Instrument type: ESI-TOF
Ms type: MS2
Ion mode: POSITIVE
Ionization: ESI
Collision energy: 0.6458333
Column name: Acquity CSHC18
Retention time: 0.501 min
Base peak: 137.07166
Precursor m/z: 137.07166
Precursor type: [M+H]+
m/z	relative intensity
53.0394	2
65.0399	28
67.0555	35
68.0589	1
77.0398	19
78.035	25
81.0544	2
82.0663	6
92.0504	686
93.057	173
94.1536	999
95.0692	153
96.0452	97
97.0479	6
98.9627	1
106.0295	64
108.0452	12
109.077	23
110.0607	147
111.064	9
119.0612	40
120.0455	58
121.0474	5
137.8736	242
149.0726	1
151.0873	4
159.0536	14
160.0576	1
173.0089	1
175.0285	1
178.0618	33
179.0722	2
200.1192	1
212.0841	4
221.0239	2
227.1065	11
228.1141	19
229.1177	2
253.1095	16
271.1198	332
272.1228	60
273.1351	115
274.1382	19
275.1411	2
295.1176	12
311.0918	1
327.0503	1
357.087	4
389.1725	2
407.183	53
408.1864	13
409.1982	33
410.2007	7
431.1817	7
432.1835	1
447.1524	1
493.1509	2
543.247	18
544.2501	6
545.2627	73
546.2664	25
547.2673	4
567.2451	6
568.2495	1
583.2134	1
629.2137	2
679.3102	10
680.3139	3
681.3241	26
682.3293	10
683.3309	2
703.3062	1
815.3743	4
817.3885	13
818.3903	6
951.4376	3
952.4323	2
953.4484	8
954.4537	4
955.4528	1
1087.5032	2
1089.5125	7
1090.5165	3
1091.5123	1
