Mass spectrum: 17-trifluoromethylphenyl-13,14-dihydro trinor Prostaglandin F2-alpha; ESI-TOF; MS2; CE: 6.0000000;  [M+H]+
Name: 17-trifluoromethylphenyl-13,14-dihydro trinor Prostaglandin F2-alpha
Class: NA
Formula: C24H33F3O5
Exact mass: 458.22801
SMILES: OC(CCc1cccc(c1)C(F)(F)F)CC[C@H]1C(O)CC(O)C1C/C=C\CCCC(=O)O
InChI: InChI=1S/C24H33F3O5/c25-24(26,27)17-7-5-6-16(14-17)10-11-18(28)12-13-20-19(21(29)15-22(20)30)8-3-1-2-4-9-23(31)32/h1,3,5-7,14,18-22,28-30H,2,4,8-13,15H2,(H,31,32)/b3-1-/t18?,19?,20-,21?,22?/m1/s1
Instrument: waters xevo g2 TOF
Instrument type: ESI-TOF
Ms type: MS2
Ion mode: POSITIVE
Ionization: ESI
Collision energy: 6.0000000
Column name: Acquity CSHC18
Retention time: 3.972 min
Base peak: 459.23601
Precursor m/z: 459.23601
Precursor type: [M+H]+
m/z	relative intensity
171.1166	20
188.0836	8
189.1276	12
201.0755	6
207.1373	35
208.1413	2
210.0797	143
210.582	18
219.0859	48
219.5887	9
221.154	27
229.0875	10
239.1618	9
279.1355	5
295.1304	12
303.1361	4
307.1301	11
321.1457	4
345.1828	30
363.1945	14
365.1896	10
367.1861	4
377.2113	5
387.1936	156
388.1953	35
389.202	4
405.2038	676
406.2057	173
407.2213	13
423.2149	999
424.217	255
425.2205	35
441.2252	121
442.2281	28
443.2275	4
448.2002	5
452.1295	36
459.2363	310
460.2395	81
