Mass spectrum: Hypotaurine; ESI-TOF; MS2; CE: 6.0000000;  [M+H]+
Name: Hypotaurine
Class: NA
Formula: C2H7NO2S
Exact mass: 109.01975
SMILES: NCCS(O)=O
InChI: InChI=1S/C2H7NO2S/c3-1-2-6(4)5/h1-3H2,(H,4,5)
Instrument: waters xevo g2 TOF
Instrument type: ESI-TOF
Ms type: MS2
Ion mode: POSITIVE
Ionization: ESI
Collision energy: 6.0000000
Column name: Acquity CSHC18
Retention time: 0.527 min
Base peak: 110.02775
Precursor m/z: 110.02775
Precursor type: [M+H]+
m/z	relative intensity
92.0171	98
95.9737	10
98.9696	25
102.1102	23
103.9596	9
108.9619	7
110.0277	999
111.0284	29
111.9962	44
113.9644	802
124.9563	13
126.0223	44
127.981	3
129.9684	1
130.967	8
137.9882	340
143.9594	293
146.9519	5
147.9649	36
154.9684	19
156.9806	4
159.97	49
161.9697	14
162.9891	12
163.9749	6
173.869	2
175.9846	16
177.1287	3
180.951	17
182.9741	247
184.9863	123
186.9223	14
188.9909	16
189.9758	1
194.965	23
204.974	35
207.9966	18
235.0427	10
241.885	39
243.0056	43
256.9939	50
258.9168	3
259.8905	6
263.8658	4
264.8709	4
267.9647	19
269.964	59
271.9582	903
272.9643	220
273.9573	113
274.9632	64
276.9286	11
289.892	3
294.9479	31
295.9516	3
363.7947	3
366.0152	17
378.9838	11
380.9786	272
382.9741	41
396.9763	9
397.9799	8
402.9608	9
435.9058	11
451.8991	12
489.9935	18
491.0019	3
