Mass spectrum: methyl 2-acetamido-2-deoxy-?-D-glucopyranoside; ESI-TOF; MS2; CE: 6.0000000;  [M+H]+
Name: methyl 2-acetamido-2-deoxy-?-D-glucopyranoside
Class: NA
Formula: C9H17NO6
Exact mass: 235.10559
SMILES: O=C(N[C@@H]1[C@@H](O)[C@H](O)[C@H](O[C@@H]1OC)CO)C
InChI: InChI=1S/C9H17NO6/c1-4(12)10-6-8(14)7(13)5(3-11)16-9(6)15-2/h5-9,11,13-14H,3H2,1-2H3,(H,10,12)/t5-,6-,7-,8-,9+/m1/s1
Instrument: waters xevo g2 TOF
Instrument type: ESI-TOF
Ms type: MS2
Ion mode: POSITIVE
Ionization: ESI
Collision energy: 6.0000000
Column name: Acquity CSHC18
Retention time: 0.831 min
Base peak: 236.11359
Precursor m/z: 236.11359
Precursor type: [M+H]+
m/z	relative intensity
126.055	75
137.5332	28
137.534	20
138.0549	319
138.055	677
139.0569	32
139.058	46
144.0652	72
144.0655	173
146.5394	50
158.047	56
168.0651	313
186.0765	256
187.08	34
195.0661	37
204.0855	794
205.0903	58
236.1123	48
238.9863	29
238.9871	51
242.1194	21
242.1205	17
255.0852	123
255.0867	68
258.0945	999
259.0981	90
260.0998	22
274.0628	20
290.0321	24
303.0026	48
303.0047	70
320.0635	49
320.0651	59
335.03	102
336.0375	29
372.6384	73
373.141	21
373.1424	48
373.6439	19
399.0945	23
399.5968	31
477.2261	23
493.2002	118
493.2005	504
494.2062	47
494.2079	60
524.13	82
525.1374	30
525.139	73
527.1361	23
555.1728	20
