Mass spectrum: L-Citrulline; LC-ESI-QTOF; MS2; CE: 15.00;  [M+H]+
Name: L-Citrulline
Class: NA
Formula: C6H13N3O3
Exact mass: 175.0957
SMILES: C(CC(C(=O)O)N)CNC(=O)N
InChI: InChI=1S/C6H13N3O3/c7-4(5(10)11)2-1-3-9-6(8)12/h4H,1-3,7H2,(H,10,11)(H3,8,9,12)
Instrument: Bruker MicrOTOF-Q
Instrument type: LC-ESI-QTOF
Ms type: MS2
Ion mode: POSITIVE
Ionization: ESI
Collision energy: 15.00
Column name: Acquity CSHC18
Retention time: NA
Base peak: 176.1030
Precursor m/z: 176.1030
Precursor type: [M+H]+
m/z	relative intensity
111.993	1
113.0729	152
113.6601	3
114.0612	37
114.1246	2
115.087	21
116.0718	31
117.0667	5
125.0171	1
129.9989	1
131.0822	9
133.0997	5
141.0658	56
142.0547	42
145.9869	1
146.0627	2
158.8645	1
158.9489	4
159.0777	999
159.2757	4
159.4754	2
159.6324	1
159.7013	1
160.015	2
160.0781	62
161.0754	3
161.4392	2
164.3027	1
176.1046	7
438.2228	1
