Mass spectrum: L-Glutamic acid; LC-ESI-ITFT; MS2; CE: 100;  [M+H]+
Name: L-Glutamic acid
Class: Organic acids and derivatives; Carboxylic acids and derivatives; Amino acids, peptides, and analogues
Formula: C5H9NO4
Exact mass: 147.05316
SMILES: N[C@@H](CCC(O)=O)C(O)=O
InChI: InChI=1S/C5H9NO4/c6-3(5(9)10)1-2-4(7)8/h3H,1-2,6H2,(H,7,8)(H,9,10)/t3-/m0/s1
Instrument: Thermo Scientific Q-Exactive Focus
Instrument type: LC-ESI-ITFT
Ms type: MS2
Ion mode: POSITIVE
Ionization: ESI
Collision energy: 100
Column name: Acquity CSHC18
Retention time: 2.570 min
Base peak: 148.06042
Precursor m/z: 148.06042
Precursor type: [M+H]+
m/z	relative intensity
53.0028	999
61.8095	295
67.7264	271
75.8258	310
92.5242	378
120.239	328
122.0223	287
122.8148	275
124.3988	273
151.4108	290
