Mass spectrum: Hydroxykynurenine; LC-ESI-ITFT; MS2; CE: 20;  [M+H]+
Name: Hydroxykynurenine
Class: Organic oxygen compounds; Organooxygen compounds; Carbonyl compounds
Formula: C10H12N2O4
Exact mass: 224.07971
SMILES: NC(CC(=O)C1=C(N)C(O)=CC=C1)C(O)=O
InChI: InChI=1S/C10H12N2O4/c11-6(10(15)16)4-8(14)5-2-1-3-7(13)9(5)12/h1-3,6,13H,4,11-12H2,(H,15,16)
Instrument: Thermo Scientific Q-Exactive Focus
Instrument type: LC-ESI-ITFT
Ms type: MS2
Ion mode: POSITIVE
Ionization: ESI
Collision energy: 20
Column name: Acquity CSHC18
Retention time: 0.635 min
Base peak: 225.08698
Precursor m/z: 225.08698
Precursor type: [M+H]+
m/z	relative intensity
74.0241	164
99.008	144
110.0603	999
120.0445	121
134.0601	105
136.0393	260
152.0706	194
162.055	860
166.0499	149
190.0498	406
