Mass spectrum: 3-(2-hydroxyethylindole); ESI-TOF; MS2; CE: 6.0000000;  [M+H]+
Name: 3-(2-hydroxyethylindole)
Class: NA
Formula: C10H11NO
Exact mass: 161.08406
SMILES: c1ccc2c(c1)c(c[nH]2)CCO
InChI: InChI=1S/C10H11NO/c12-6-5-8-7-11-10-4-2-1-3-9(8)10/h1-4,7,11-12H,5-6H2
Instrument: waters xevo g2 TOF
Instrument type: ESI-TOF
Ms type: MS2
Ion mode: POSITIVE
Ionization: ESI
Collision energy: 6.0000000
Column name: Acquity CSHC18
Retention time: 2.286 min
Base peak: 162.09206
Precursor m/z: 162.09206
Precursor type: [M+H]+
m/z	relative intensity
130.0655	38
131.0722	3
132.0805	18
144.0811	999
145.0842	114
146.0878	5
160.0767	12
161.0819	10
162.0918	414
166.0619	3
181.0658	73
181.5673	15
184.0733	54
185.0351	2
187.0082	11
188.0076	2
198.0224	2
200.0386	48
201.0254	5
217.0188	9
218.051	8
219.021	4
220.0268	7
229.0012	3
230.9981	56
232.0595	4
246.0434	65
247.0469	8
262.0171	31
263.0217	5
264.0183	16
266.0111	5
273.1662	5
303.1483	2
316.0651	1
319.1445	9
321.1597	20
322.1634	3
335.1367	4
343.1396	2
344.0826	4
346.0768	71
347.0796	16
350.1605	3
351.1737	2
376.0867	13
377.0952	16
378.0979	4
380.102	8
382.0979	3
478.2124	7
479.2179	4
480.2279	3
637.2795	3
