Mass spectrum: GLYCOCHOLATE; LC-ESI-QTOF; MS2; CE: 20;  [M+H]+
Name: GLYCOCHOLATE
Class: NA
Formula: C26H43NO6
Exact mass: 465.30904
SMILES: C[C@H](CCC(O)=NCC(O)=O)[C@H]1CC[C@H]2[C@@H]3[C@H](O)C[C@@H]4C[C@H](O)CC[C@]4(C)[C@H]3C[C@H](O)[C@]12C
InChI: InChI=1S/C26H43NO6/c1-14(4-7-22(31)27-13-23(32)33)17-5-6-18-24-19(12-21(30)26(17,18)3)25(2)9-8-16(28)10-15(25)11-20(24)29/h14-21,24,28-30H,4-13H2,1-3H3,(H,27,31)(H,32,33)/t14-,15+,16-,17-,18+,19+,20-,21+,24+,25+,26-/m1/s1
Instrument: Agilent 6530Â Q-TOF LC/MS
Instrument type: LC-ESI-QTOF
Ms type: MS2
Ion mode: POSITIVE
Ionization: ESI
Collision energy: 20
Column name: NA
Retention time: 0.200 min
Base peak: 466.31274
Precursor m/z: 466.31274
Precursor type: [M+H]+
Precursor intensity: 89.5
m/z	relative intensity
55.0545	46
67.057	47
76.0552	47
81.0735	48
85.0718	50
105.0716	52
107.0932	52
109.1072	54
119.0957	54
121.1023	55
123.0972	55
126.0942	56
131.0885	56
133.1074	56
143.0766	57
144.0895	57
145.0957	59
147.122	59
149.0958	65
157.1012	65
158.0977	68
159.1299	69
161.1497	71
169.0991	72
171.1173	72
173.106	73
175.1062	74
183.1171	74
185.1352	74
191.1408	76
198.1044	81
199.1585	82
201.1653	83
209.148	83
210.1106	85
211.1503	87
212.1466	89
213.1704	90
214.1673	92
224.1142	94
225.1664	99
227.1789	99
229.1571	100
235.156	100
237.1597	102
239.1895	106
241.188	107
243.1769	109
252.1552	110
253.1846	111
255.1765	116
259.1606	130
267.2074	138
277.1752	148
281.2332	155
293.228	173
295.2187	189
296.2388	200
304.2026	211
309.2412	292
319.2735	298
337.2878	355
338.2516	408
412.331	679
413.2917	999
430.3226	46
448.2978	47
