Mass spectrum: GLYCOCHENODEOXYCHOLATE; LC-ESI-QFT; MS2; CE: 30eV;  [M-H]-
Name: GLYCOCHENODEOXYCHOLATE
Class: NA
Formula: C26H43NO5
Exact mass: 449.31412
SMILES: CC(CCC(=O)NCC(=O)O)C1CCC2C1(CCC3C2C(CC4C3(CCC(C4)O)C)O)C
InChI: InChI=1S/C26H43NO5/c1-15(4-7-22(30)27-14-23(31)32)18-5-6-19-24-20(9-11-26(18,19)3)25(2)10-8-17(28)12-16(25)13-21(24)29/h15-21,24,28-29H,4-14H2,1-3H3,(H,27,30)(H,31,32)
Instrument: Q-Exactive Orbitrap, Thermo Scientfic; Ultimate 3000 HPLC, Thermo Scientfic
Instrument type: LC-ESI-QFT
Ms type: MS2
Ion mode: NEGATIVE
Ionization: ESI
Collision energy: 30eV
Column name: Acquity CSHC18
Retention time: 10.278 min
Base peak: 448.3069
Precursor m/z: 448.3069
Precursor type: [M-H]-
Precursor intensity: 133
m/z	relative intensity
56.1932	1
57.652	1
74.0232	319
75.0266	1
99.1706	1
104.704	1
123.1659	1
125.7742	1
134.5147	1
166.8946	1
173.0164	1
229.175	1
234.7127	1
253.4925	1
274.8676	1
386.3069	16
387.3098	2
390.6485	1
404.3177	2
448.3072	999
449.3107	166
