Mass spectrum: L-Serine; LC-ESI-ITFT; MS2; CE: 100;  [M+H]+
Name: L-Serine
Class: Organic acids and derivatives; Carboxylic acids and derivatives; Amino acids, peptides, and analogues
Formula: C3H7NO3
Exact mass: 105.04259
SMILES: N[C@@H](CO)C(O)=O
InChI: InChI=1S/C3H7NO3/c4-2(1-5)3(6)7/h2,5H,1,4H2,(H,6,7)/t2-/m0/s1
Instrument: Thermo Scientific Q-Exactive Focus
Instrument type: LC-ESI-ITFT
Ms type: MS2
Ion mode: POSITIVE
Ionization: ESI
Collision energy: 100
Column name: Acquity CSHC18
Retention time: 2.570 min
Base peak: 106.04987
Precursor m/z: 106.04987
Precursor type: [M+H]+
m/z	relative intensity
51.4637	816
56.5432	968
56.7415	843
63.9743	849
79.817	961
84.3561	876
88.8585	941
90.6111	870
103.0678	937
122.3259	999
