Mass spectrum: ADP-GLUCOSE; LC-ESI-QFT; MS2; CE: 30eV;  [M-H]-
Name: ADP-GLUCOSE
Class: NA
Formula: C16H25N5O15P2
Exact mass: 589.08224
SMILES: NC1=C2N=CN([C@@H]3O[C@H](CO[P@](O)(=O)O[P@](O)(=O)O[C@H]4O[C@H](CO)[C@@H](O)[C@H](O)[C@H]4O)[C@@H](O)[C@H]3O)C2=NC=N1
InChI: InChI=1S/C16H25N5O15P2/c17-13-7-14(19-3-18-13)21(4-20-7)15-11(26)9(24)6(33-15)2-32-37(28,29)36-38(30,31)35-16-12(27)10(25)8(23)5(1-22)34-16/h3-6,8-12,15-16,22-27H,1-2H2,(H,28,29)(H,30,31)(H2,17,18,19)/t5-,6-,8-,9-,10+,11-,12-,15-,16-/m1/s1
Instrument: Q-Exactive Orbitrap, Thermo Scientfic; Ultimate 3000 HPLC, Thermo Scientfic
Instrument type: LC-ESI-QFT
Ms type: MS2
Ion mode: NEGATIVE
Ionization: ESI
Collision energy: 30eV
Column name: Acquity CSHC18
Retention time: 0.642 min
Base peak: 588.0750
Precursor m/z: 588.0750
Precursor type: [M-H]-
Precursor intensity: 150
m/z	relative intensity
52.9165	4
53.0447	4
58.4317	4
62.7583	4
70.1143	5
72.133	4
74.169	4
76.7299	4
78.9575	999
96.968	330
103.5616	5
104.314	5
108.0008	5
109.3855	4
120.9681	7
123.4341	4
130.0471	4
134.0459	56
138.9788	7
150.9789	41
158.9243	74
165.6455	4
174.9793	8
176.9349	36
180.3567	5
191.8847	5
192.9898	9
211.0005	82
223.0016	6
224.2411	6
228.8039	6
231.5621	5
239.9588	5
241.0115	635
242.015	21
258.3093	5
259.0225	26
272.9571	107
292.5774	5
316.5387	5
320.9783	112
321.9818	5
328.0455	47
346.0558	940
347.0593	62
382.1306	5
404.6382	5
408.0117	138
409.0162	8
426.0225	13
469.4215	4
530.3735	6
