Mass spectrum: URIDINE DIPHOSPHATE-N-ACETYLGLUCOSAMINE; LC-ESI-QTOF; MS2; CE: 40;  [M-H]-
Name: URIDINE DIPHOSPHATE-N-ACETYLGLUCOSAMINE
Class: NA
Formula: C17H27N3O17P2
Exact mass: 607.08157
SMILES: CC(=O)N[C@@H]1[C@@H](O)[C@H](O)[C@@H](CO)O[C@@H]1OP(O)(=O)OP(O)(=O)OC[C@H]1O[C@H]([C@H](O)[C@@H]1O)N1C=CC(=O)NC1=O
InChI: InChI=1S/C17H27N3O17P2/c1-6(22)18-10-13(26)11(24)7(4-21)35-16(10)36-39(31,32)37-38(29,30)33-5-8-12(25)14(27)15(34-8)20-3-2-9(23)19-17(20)28/h2-3,7-8,10-16,21,24-27H,4-5H2,1H3,(H,18,22)(H,29,30)(H,31,32)(H,19,23,28)/t7-,8-,10-,11-,12-,13-,14-,15-,16-/m1/s1
Instrument: Agilent 6530Â Q-TOF LC/MS
Instrument type: LC-ESI-QTOF
Ms type: MS2
Ion mode: NEGATIVE
Ionization: ESI
Collision energy: 40
Column name: NA
Retention time: 0.200 min
Base peak: 606.06370
Precursor m/z: 606.06370
Precursor type: [M-H]-
Precursor intensity: 126
m/z	relative intensity
78.9768	109
96.9801	136
111.0312	140
158.9443	151
174.982	153
176.9484	165
260.9601	168
264.0261	173
272.9807	320
282.0606	363
300.0548	406
305.022	453
323.0374	529
362.0139	731
385.0077	774
402.9968	999
