Mass spectrum: Stearic acid; LC-ESI-QTOF; MS2; CE: 60;  [M-H]-
Name: Stearic acid
Class: NA
Formula: C18H36O2
Exact mass: 284.2715
SMILES: CCCCCCCCCCCCCCCCCC(=O)O
InChI: InChI=1S/C18H36O2/c1-2-3-4-5-6-7-8-9-10-11-12-13-14-15-16-17-18(19)20/h2-17H2,1H3,(H,19,20)
Instrument: impact II
Instrument type: LC-ESI-QTOF
Ms type: MS2
Ion mode: NEGATIVE
Ionization: ESI
Collision energy: 60
Column name: Acquity CSHC18
Retention time: 1.878 min
Base peak: 283.2642
Precursor m/z: 283.2642
Precursor type: [M-H]-
m/z	relative intensity
119.0506	255
251.0477	999
252.0519	268
