Mass spectrum: Uric acid; LC-ESI-ITFT; MS2; CE: 40;  [M-H]-
Name: Uric acid
Class: Organoheterocyclic compounds; Imidazopyrimidines; Purines and purine derivatives
Formula: C5H4N4O3
Exact mass: 168.02834
SMILES: O=C1NC2=C(N1)C(=O)NC(=O)N2
InChI: InChI=1S/C5H4N4O3/c10-3-1-2(7-4(11)6-1)8-5(12)9-3/h(H4,6,7,8,9,10,11,12)
Instrument: Thermo Scientific Q-Exactive Focus
Instrument type: LC-ESI-ITFT
Ms type: MS2
Ion mode: NEGATIVE
Ionization: ESI
Collision energy: 40
Column name: Acquity CSHC18
Retention time: 1.476 min
Base peak: 167.02106
Precursor m/z: 167.02106
Precursor type: [M-H]-
m/z	relative intensity
69.0082	999
75.1507	68
89.3052	68
92.2986	73
107.5865	68
111.434	67
122.3715	74
130.5122	66
160.4769	69
168.9329	69
