Mass spectrum: 4-Hydroxyacetophenone; LC-ESI-QTOF; MS2; CE: 50eV;  [M-H]-
Name: 4-Hydroxyacetophenone
Class: Acetophenone
Formula: C8H8O2
Exact mass: 136.0524
SMILES: CC(=O)C1=CC=C(C=C1)O
InChI: InChI=1S/C8H8O2/c1-6(9)7-2-4-8(10)5-3-7/h2-5,10H,1H3
Instrument: TIMS-TOF Pro, Bruker Daltonik; Elute UHPLC System, Bruker Daltonik
Instrument type: LC-ESI-QTOF
Ms type: MS2
Ion mode: NEGATIVE
Ionization: ESI
Collision energy: 50eV
Column name: Acquity CSHC18
Retention time: 5.020 min
Base peak: 135.0431
Precursor m/z: 135.0431
Precursor type: [M-H]-
Precursor intensity: 7266.81
m/z	relative intensity
92.0236	830
93.0352	999
121.0236	444
