Mass spectrum: Thymine; LC-ESI-QTOF; MS2; CE: 15.00;  [M+H]+
Name: Thymine
Class: NA
Formula: C5H6N2O2
Exact mass: 126.0429
SMILES: CC1=CNC(=O)NC1=O
InChI: InChI=1S/C5H6N2O2/c1-3-2-6-5(9)7-4(3)8/h2H,1H3,(H2,6,7,8,9)
Instrument: Bruker MicrOTOF-Q
Instrument type: LC-ESI-QTOF
Ms type: MS2
Ion mode: POSITIVE
Ionization: ESI
Collision energy: 15.00
Column name: Acquity CSHC18
Retention time: NA
Base peak: 127.0502
Precursor m/z: 127.0502
Precursor type: [M+H]+
m/z	relative intensity
56.0486	2
65.1619	1
75.0863	1
82.0257	1
109.0356	377
109.3193	1
109.465	1
109.5132	1
109.7605	1
109.7975	1
109.902	2
110.0206	999
110.1418	2
110.2196	2
110.2634	1
110.6147	1
110.7844	1
110.9672	1
111.0236	70
111.5678	1
112.0228	1
126.9082	1
127.0474	897
127.2744	2
127.3334	1
127.3957	2
127.4393	2
127.5085	1
127.6745	1
127.8333	1
128.051	56
257.0299	1
