Mass spectrum: N-METHYLTRYPTAMINE; LC-ESI-QTOF; MS2; CE: 20;  [M+H]+
Name: N-METHYLTRYPTAMINE
Class: NA
Formula: C11H14N2
Exact mass: 174.11570
SMILES: CNCCC1=CNC2=CC=CC=C12
InChI: InChI=1S/C11H14N2/c1-12-7-6-9-8-13-11-5-3-2-4-10(9)11/h2-5,8,12-13H,6-7H2,1H3
Instrument: Agilent 6530Â Q-TOF LC/MS
Instrument type: LC-ESI-QTOF
Ms type: MS2
Ion mode: POSITIVE
Ionization: ESI
Collision energy: 20
Column name: NA
Retention time: 0.200 min
Base peak: 175.12574
Precursor m/z: 175.12574
Precursor type: [M+H]+
Precursor intensity: 94.5
m/z	relative intensity
41.0367	24
44.0739	25
45.0514	27
50.0144	27
51.0246	27
63.0239	28
65.044	28
66.0392	30
77.0545	31
79.0544	31
89.0514	32
90.0547	32
91.0828	33
93.0625	33
101.0442	34
103.0676	39
104.0533	42
105.0788	47
106.0622	48
115.0879	51
115.3217	52
116.0768	61
117.2138	65
117.5531	73
117.7126	74
118.0829	76
127.0918	78
128.0758	80
129.0668	102
130.0682	106
131.0898	137
132.1188	158
132.7684	186
142.0754	265
143.1314	326
143.3797	647
143.6097	662
143.849	727
144.5905	739
145.2915	756
145.4908	873
145.7961	999
