Mass spectrum: 3-Methoxytyramine; ESI-TOF; MS2; CE: 6.0000000;  [M+H]+
Name: 3-Methoxytyramine
Class: NA
Formula: C9H13NO2
Exact mass: 167.09463
SMILES: COC1=C(O)C=CC(CCN)=C1
InChI: InChI=1S/C9H13NO2/c1-12-9-6-7(4-5-10)2-3-8(9)11/h2-3,6,11H,4-5,10H2,1H3
Instrument: waters xevo g2 TOF
Instrument type: ESI-TOF
Ms type: MS2
Ion mode: POSITIVE
Ionization: ESI
Collision energy: 6.0000000
Column name: Acquity CSHC18
Retention time: 0.570 min
Base peak: 168.10263
Precursor m/z: 168.10263
Precursor type: [M+H]+
m/z	relative intensity
92.0582	3
95.0498	36
96.0531	1
105.0709	2
123.0809	34
124.0847	3
127.9782	1
136.0525	34
137.0605	14
150.0798	15
151.3319	999
152.6059	27
154.084	3
