Mass spectrum: (S)- Norprotosinomenine HCl; ESI-QTOF; MS2; CE: 1, 35, 60;  [M+H]+
Name: (S)- Norprotosinomenine HCl
Class: Benzylisoquinoline alkaloid
Formula: C18H21NO4
Exact mass: 315.1471
SMILES: COC1=C(C=C(C=C1)CC2C3=CC(=C(C=C3CCN2)O)OC)O
InChI: InChI=1S/C18H21NO4/c1-22-17-4-3-11(8-15(17)20)7-14-13-10-18(23-2)16(21)9-12(13)5-6-19-14/h3-4,8-10,14,19-21H,5-7H2,1-2H3
Instrument: AB Sciex TripleToF 5500
Instrument type: ESI-QTOF
Ms type: MS2
Ion mode: POSITIVE
Ionization: ESI
Collision energy: 1, 35, 60
Column name: Acquity CSHC18
Retention time: 4.467 min
Base peak: 316.1531
Precursor m/z: 316.1531
Precursor type: [M+H]+
Precursor intensity: 383269.7
m/z	relative intensity
65.0396	25
66.0442	40
77.037	18
79.0461	13
89.038	26
91.0514	37
94.035	110
95.0412	11
103.0507	10
106.0662	8
115.0448	186
115.0554	187
116.057	28
119.0462	10
122.0376	86
127.0521	5
131.0485	20
134.0569	56
135.0674	53
137.0582	239
138.0616	29
141.0652	11
143.0456	101
146.0617	8
150.0555	9
151.048	42
151.0706	59
152.063	105
153.0639	46
155.0509	4
160.0513	42
162.0615	20
163.0586	247
164.0643	37
165.0694	51
166.0703	15
168.0904	6
170.0655	5
175.0745	213
177.0676	39
178.0835	999
179.089	228
180.0974	27
181.0554	58
182.0731	10
189.0691	23
195.0774	21
197.0542	10
205.0689	19
207.0813	57
209.1627	3
223.0637	9
224.0832	20
226.0571	3
235.0771	33
236.076	11
239.1007	41
267.099	89
268.1036	21
269.0938	9
284.1072	13
285.1051	3
298.1785	4
299.1251	308
300.1221	79
301.1306	10
315.136	23
316.1442	49
316.1543	149
317.1591	75
