Mass spectrum: cAMP; LC-ESI-QTOF; MS2; CE: -10, -35, -60V;  [M-H]-
Name: cAMP
Class: NA
Formula: C10H12N5O6P
Exact mass: 329.0525
SMILES: C1C2C(C(C(O2)N3C=NC4=C(N=CN=C43)N)O)OP(=O)(O1)O
InChI: InChI=1S/C10H12N5O6P/c11-8-5-9(13-2-12-8)15(3-14-5)10-6(16)7-4(20-10)1-19-22(17,18)21-7/h2-4,6-7,10,16H,1H2,(H,17,18)(H2,11,12,13)
Instrument: TripleToF 5600; Sciex
Instrument type: LC-ESI-QTOF
Ms type: MS2
Ion mode: NEGATIVE
Ionization: ESI
Collision energy: -10, -35, -60V
Column name: Acquity CSHC18
Retention time: 8.037 min
Base peak: 328.0458
Precursor m/z: 328.0458
Precursor type: [M-H]-
Precursor intensity: 516259.1
m/z	relative intensity
65.0139	17
78.9599	667
92.0201	6
92.0255	68
96.9696	21
107.0368	220
134.0485	999
134.985	17
192.9919	24
328.0307	10
328.0485	274
