Mass spectrum: ADENINE; LC-ESI-QTOF; MS2; CE: 20;  [M-H]-
Name: ADENINE
Class: NA
Formula: C5H5N5
Exact mass: 135.05450
SMILES: NC1=C2NC=NC2=NC=N1
InChI: InChI=1S/C5H5N5/c6-4-3-5(9-1-7-3)10-2-8-4/h1-2H,(H3,6,7,8,9,10)
Instrument: Agilent 6530Â Q-TOF LC/MS
Instrument type: LC-ESI-QTOF
Ms type: MS2
Ion mode: NEGATIVE
Ionization: ESI
Collision energy: 20
Column name: NA
Retention time: 0.200 min
Base peak: 134.04718
Precursor m/z: 134.04718
Precursor type: [M-H]-
Precursor intensity: 167
m/z	relative intensity
41.0172	126
64.0109	163
65.022	183
66.0083	208
68.0269	249
90.0072	275
92.0369	429
106.0266	546
107.0565	974
134.0671	999
