Mass spectrum: Enterolactone; LC-ESI-ITFT; MS2; CE: 30;  [M-H]-
Name: Enterolactone
Class: Lignans, neolignans and related compounds; Furanoid lignans; Tetrahydrofuran lignans
Formula: C18H18O4
Exact mass: 298.12051
SMILES: OC1=CC=CC(CC2COC(=O)C2CC2=CC(O)=CC=C2)=C1
InChI: InChI=1S/C18H18O4/c19-15-5-1-3-12(8-15)7-14-11-22-18(21)17(14)10-13-4-2-6-16(20)9-13/h1-6,8-9,14,17,19-20H,7,10-11H2
Instrument: Thermo Scientific Q-Exactive Focus
Instrument type: LC-ESI-ITFT
Ms type: MS2
Ion mode: NEGATIVE
Ionization: ESI
Collision energy: 30
Column name: Acquity CSHC18
Retention time: 0.931 min
Base peak: 297.11322
Precursor m/z: 297.11322
Precursor type: [M-H]-
m/z	relative intensity
107.049	999
119.049	288
121.0283	133
121.0647	446
131.049	119
133.0647	148
145.0647	199
147.044	55
189.0548	255
253.1231	409
