Mass spectrum: Hydroxykynurenine; LC-ESI-ITFT; MS2; CE: 40;  [M-H]-
Name: Hydroxykynurenine
Class: Organic oxygen compounds; Organooxygen compounds; Carbonyl compounds
Formula: C10H12N2O4
Exact mass: 224.07971
SMILES: NC(CC(=O)C1=C(N)C(O)=CC=C1)C(O)=O
InChI: InChI=1S/C10H12N2O4/c11-6(10(15)16)4-8(14)5-2-1-3-7(13)9(5)12/h1-3,6,13H,4,11-12H2,(H,15,16)
Instrument: Thermo Scientific Q-Exactive Focus
Instrument type: LC-ESI-ITFT
Ms type: MS2
Ion mode: NEGATIVE
Ionization: ESI
Collision energy: 40
Column name: Acquity CSHC18
Retention time: 1.475 min
Base peak: 223.07243
Precursor m/z: 223.07243
Precursor type: [M-H]-
m/z	relative intensity
72.0078	312
91.0177	269
93.0334	453
107.0365	315
108.0443	496
116.0494	512
118.0287	870
132.0444	278
147.0315	666
160.0394	999
