Mass spectrum: L-Arginine; ESI-TOF; MS2; CE: 0.6458333;  [M+H]+
Name: L-Arginine
Class: NA
Formula: C6H14N4O2
Exact mass: 174.11168
SMILES: NC(CCCN=C(N)N)C(O)=O
InChI: InChI=1S/C6H14N4O2/c7-4(5(11)12)2-1-3-10-6(8)9/h4H,1-3,7H2,(H,11,12)(H4,8,9,10)
Instrument: waters xevo g2 TOF
Instrument type: ESI-TOF
Ms type: MS2
Ion mode: POSITIVE
Ionization: ESI
Collision energy: 0.6458333
Column name: Acquity CSHC18
Retention time: 0.479 min
Base peak: 175.11968
Precursor m/z: 175.11968
Precursor type: [M+H]+
m/z	relative intensity
60.0575	46
70.0667	999
71.0699	52
72.0819	37
88.0764	11
100.9923	16
101.9404	13
101.9653	17
111.9678	4
112.0879	208
115.0882	10
116.0717	395
117.0745	15
130.0985	9
140.0823	2
141.067	13
158.0934	192
175.1199	15
176.1226	19
184.0431	15
185.0478	6
217.8599	10
284.0911	4
343.1145	6
349.2309	7
402.1435	9
403.15	30
404.1559	3
