Mass spectrum: 5-trans Prostaglandin F2-alpha; ESI-TOF; MS2; CE: 6.0000000;  [M+H]+
Name: 5-trans Prostaglandin F2-alpha
Class: NA
Formula: C20H34O5
Exact mass: 354.24062
SMILES: O[C@@H]1[C@H](C/C=C/CCCC(O)=O)[C@@H](/C=C/[C@@H](O)CCCCC)[C@H](O)C1
InChI: InChI=1S/C20H34O5/c1-2-3-6-9-15(21)12-13-17-16(18(22)14-19(17)23)10-7-4-5-8-11-20(24)25/h4,7,12-13,15-19,21-23H,2-3,5-6,8-11,14H2,1H3,(H,24,25)/b7-4+,13-12+/t15-,16+,17+,18-,19+/m0/s1
Instrument: waters xevo g2 TOF
Instrument type: ESI-TOF
Ms type: MS2
Ion mode: POSITIVE
Ionization: ESI
Collision energy: 6.0000000
Column name: Acquity CSHC18
Retention time: 3.617 min
Base peak: 355.24862
Precursor m/z: 355.24862
Precursor type: [M+H]+
m/z	relative intensity
131.0865	6
133.1022	2
135.1013	1
145.1023	2
147.1017	2
171.1191	3
187.1124	30
188.0959	13
189.1479	2
201.1258	5
203.1453	3
205.1583	9
217.1618	4
219.1346	6
229.1967	11
231.1362	6
239.1798	6
245.1923	4
257.1905	100
258.1929	7
259.2046	19
263.1994	88
264.2042	12
265.2041	236
266.2184	33
273.2023	13
275.2006	162
276.2046	25
283.2059	168
284.2096	28
285.219	9
291.2341	29
293.2116	23
299.1995	5
301.2173	999
302.2204	206
303.2314	54
304.2322	6
311.1842	4
317.2071	14
318.1291	38
319.2277	797
320.2319	141
321.2375	30
331.1583	7
335.2195	11
337.2368	183
338.2413	37
356.2103	58
356.713	25
