Mass spectrum: Homocysteine; LC-ESI-ITFT; MS2; CE: 40;  [M+H]+
Name: Homocysteine
Class: Organic acids and derivatives; Carboxylic acids and derivatives; Amino acids, peptides, and analogues
Formula: C4H9NO2S
Exact mass: 135.03540
SMILES: NC(CCS)C(O)=O
InChI: InChI=1S/C4H9NO2S/c5-3(1-2-8)4(6)7/h3,8H,1-2,5H2,(H,6,7)
Instrument: Thermo Scientific Q-Exactive Focus
Instrument type: LC-ESI-ITFT
Ms type: MS2
Ion mode: POSITIVE
Ionization: ESI
Collision energy: 40
Column name: Acquity CSHC18
Retention time: 1.463 min
Base peak: 136.04268
Precursor m/z: 136.04268
Precursor type: [M+H]+
m/z	relative intensity
53.5817	19
56.0501	999
60.5205	31
65.0391	23
73.0112	100
79.0547	19
92.5242	19
117.0859	17
120.081	22
132.705	19
