Mass spectrum: C12 Ceramide (d18:1/12:0); ESI-TOF; MS2; CE: 6.0000000;  [M+H]+
Name: C12 Ceramide (d18:1/12:0)
Class: NA
Formula: C30H59NO3
Exact mass: 481.44949
SMILES: [H]OC([H])([H])C([H])(N([H])C(=O)C([H])([H])C([H])([H])C([H])([H])C([H])([H])C([H])([H])C([H])([H])C([H])([H])C([H])([H])C([H])([H])C([H])([H])C([H])([H])[H])C([H])(O[H])C([H])=C([H])C([H])([H])C([H])([H])C([H])([H])C([H])([H])C([H])([H])C([H])([H])C([H])([H])C([H])([H])C([H])([H])C([H])([H])C([H])([H])C([H])([H])C([H])([H])[H]
InChI: InChI=1S/C30H59NO3/c1-3-5-7-9-11-13-14-15-16-18-19-21-23-25-29(33)28(27-32)31-30(34)26-24-22-20-17-12-10-8-6-4-2/h23,25,28-29,32-33H,3-22,24,26-27H2,1-2H3,(H,31,34)
Instrument: waters xevo g2 TOF
Instrument type: ESI-TOF
Ms type: MS2
Ion mode: POSITIVE
Ionization: ESI
Collision energy: 6.0000000
Column name: Acquity CSHC18
Retention time: 9.761 min
Base peak: 482.45749
Precursor m/z: 482.45749
Precursor type: [M+H]+
m/z	relative intensity
127.9587	1
236.6955	16
237.1977	5
237.6982	1
242.6957	22
243.1979	10
251.7012	46
252.2029	5
252.7073	9
253.2098	1
257.2072	5
260.7042	53
261.2079	13
261.7093	2
263.2094	5
263.7107	2
264.269	24
265.2724	3
281.2199	6
281.7205	2
282.2797	1
434.4363	4
446.4358	45
447.4401	14
448.4423	1
464.4466	999
465.4499	340
466.4528	63
467.4558	7
482.4573	308
483.4587	103
