Mass spectrum: CHLOROGENIC ACID; LC-ESI-QTOF; MS2; CE: 20-40eV;  [M+H]+
Name: CHLOROGENIC ACID
Class: Hydroxycinnamic acid derivative
Formula: C16H18O9
Exact mass: 354.0951
SMILES: C1=CC(=C(C=C1C(=C(C(=O)OC2(CC(CC(C2(O)[H])(O)[H])(C(=O)O)O)[H])[H])[H])O)O
InChI: InChI=1S/C16H18O9/c17-9-3-1-8(5-10(9)18)2-4-13(20)25-12-7-16(24,15(22)23)6-11(19)14(12)21/h1-5,11-12,14,17-19,21,24H,6-7H2,(H,22,23)
Instrument: Impact II, Bruker; Dionex 3000, Thermo Scientific
Instrument type: LC-ESI-QTOF
Ms type: MS2
Ion mode: POSITIVE
Ionization: ESI
Collision energy: 20-40eV
Column name: Acquity CSHC18
Retention time: 3.475 min
Base peak: 355.1018
Precursor m/z: 355.1018
Precursor type: [M+H]+
Precursor intensity: 1834.75
m/z	relative intensity
135.043	253
145.0282	110
163.0385	999
