Mass spectrum: DEOXYCYTIDINE; LC-ESI-QTOF; MS2; CE: 10;  [M+H]+
Name: DEOXYCYTIDINE
Class: NA
Formula: C9H13N3O4
Exact mass: 227.0906
SMILES: NC1=NC(=O)N(C=C1)[C@H]1C[C@H](O)[C@@H](CO)O1
InChI: InChI=1S/C9H13N3O4/c10-7-1-2-12(9(15)11-7)8-3-5(14)6(4-13)16-8/h1-2,5-6,8,13-14H,3-4H2,(H2,10,11,15)/t5-,6+,8+/m0/s1
Instrument: Agilent 6530Â Q-TOF LC/MS
Instrument type: LC-ESI-QTOF
Ms type: MS2
Ion mode: POSITIVE
Ionization: ESI
Collision energy: 10
Column name: NA
Retention time: 0.200 min
Base peak: 228.09791
Precursor m/z: 228.09791
Precursor type: [M+H]+
Precursor intensity: 85.5
m/z	relative intensity
81.0312	23
100.0699	29
112.0484	999
