Mass spectrum: L-Dopa; LC-ESI-ITFT; MS2; CE: 40;  [M+H]+
Name: L-Dopa
Class: Organic acids and derivatives; Carboxylic acids and derivatives; Amino acids, peptides, and analogues
Formula: C9H11NO4
Exact mass: 197.06881
SMILES: N[C@@H](CC1=CC(O)=C(O)C=C1)C(O)=O
InChI: InChI=1S/C9H11NO4/c10-6(9(13)14)3-5-1-2-7(11)8(12)4-5/h1-2,4,6,11-12H,3,10H2,(H,13,14)/t6-/m0/s1
Instrument: Thermo Scientific Q-Exactive Focus
Instrument type: LC-ESI-ITFT
Ms type: MS2
Ion mode: POSITIVE
Ionization: ESI
Collision energy: 40
Column name: Acquity CSHC18
Retention time: 1.466 min
Base peak: 198.07608
Precursor m/z: 198.07608
Precursor type: [M+H]+
m/z	relative intensity
53.0391	185
65.039	892
79.0546	677
81.0338	182
89.0389	232
95.0494	414
106.0653	267
107.0493	999
111.0442	318
134.0599	173
