Mass spectrum: Herbacetin 7-methyl ether; LC-ESI-QTOF; MS2; CE: 50eV;  [M+H]+
Name: Herbacetin 7-methyl ether
Class: Flavonol
Formula: C16H12O7
Exact mass: 316.0583
SMILES: COC1=C(C2=C(C(=C1)O)C(=O)C(=C(O2)C3=CC=C(C=C3)O)O)O
InChI: InChI=1S/C16H12O7/c1-22-10-6-9(18)11-13(20)14(21)15(23-16(11)12(10)19)7-2-4-8(17)5-3-7/h2-6,17-19,21H,1H3
Instrument: TIMS-TOF Pro, Bruker Daltonik; Elute UHPLC System, Bruker Daltonik
Instrument type: LC-ESI-QTOF
Ms type: MS2
Ion mode: POSITIVE
Ionization: ESI
Collision energy: 50eV
Column name: Acquity CSHC18
Retention time: 7.416 min
Base peak: 317.0639
Precursor m/z: 317.0639
Precursor type: [M+H]+
Precursor intensity: 121646.1
m/z	relative intensity
59.0144	2
68.9938	2
77.0398	3
89.0394	4
94.0392	4
106.042	9
107.0476	8
113.9515	2
121.0152	3
121.0292	15
131.0485	8
137.0234	5
144.8985	3
154.7373	2
158.0366	8
168.0005	7
184.0409	4
187.0406	8
195.0202	2
200.0352	4
203.0353	3
215.0336	3
228.0394	9
245.0446	4
252.4892	6
257.0399	22
267.0275	2
273.0397	23
285.0076	4
285.5274	5
289.053	2
301.03	10
302.0384	111
303.0429	15
305.6032	2
316.0561	10
317.0639	999
