Mass spectrum: LUMICHROME; LC-ESI-QFT; MS2; CE: 30eV;  [M-H]-
Name: LUMICHROME
Class: NA
Formula: C12H10N4O2
Exact mass: 242.08038
SMILES: CC1=CC2=C(C=C1C)N=C3C(=N2)C(=O)NC(=O)N3
InChI: InChI=1S/C12H10N4O2/c1-5-3-7-8(4-6(5)2)14-10-9(13-7)11(17)16-12(18)15-10/h3-4H,1-2H3,(H2,14,15,16,17,18)
Instrument: Q-Exactive Orbitrap, Thermo Scientfic; Ultimate 3000 HPLC, Thermo Scientfic
Instrument type: LC-ESI-QFT
Ms type: MS2
Ion mode: NEGATIVE
Ionization: ESI
Collision energy: 30eV
Column name: Acquity CSHC18
Retention time: 7.425 min
Base peak: 241.0731
Precursor m/z: 241.0731
Precursor type: [M-H]-
m/z	relative intensity
50.6986	19
50.8684	17
52.9189	21
53.0139	23
66.1287	20
69.3587	24
76.135	21
77.5771	22
84.1883	25
85.0967	23
90.1911	28
103.7554	22
104.8406	22
107.2572	23
108.8545	22
116.578	27
153.1275	29
198.0664	386
201.4858	24
207.7892	26
241.0727	999
248.6219	24
