Mass spectrum: Costunolide-Glutathione; LC-ESI-ITFT; MS2; CE: 50eV;  [M+H]+
Name: Costunolide-Glutathione
Class: Sesquiterpenelactone; Germacrolide
Formula: C25H35N3O8S
Exact mass: 537.2145
SMILES: O=C(O)[C@@H](N)CCC(=O)N[C@@H](CS\C=C1\[C@@H]2CCC(C)=CCCC(C)=C[C@H]2OC1=O)C(=O)NCC(=O)O
InChI: InChI=1S/C25H35N3O8S/c1-14-4-3-5-15(2)10-20-16(7-6-14)17(25(35)36-20)12-37-13-19(23(32)27-11-22(30)31)28-21(29)9-8-18(26)24(33)34/h4,10,12,16,18-20H,3,5-9,11,13,26H2,1-2H3,(H,27,32)(H,28,29)(H,30,31)(H,33,34)/b14-4?,15-10?,17-12-/t16-,18-,19-,20+/m0/s1
Instrument: Q Exactive Plus, ThermoFisher Scientific
Instrument type: LC-ESI-ITFT
Ms type: MS2
Ion mode: POSITIVE
Ionization: ESI
Collision energy: 50eV
Column name: Acquity CSHC18
Retention time: 6.762 min
Base peak: 538.2213
Precursor m/z: 538.2213
Precursor type: [M+H]+
Precursor intensity: 80627070
m/z	relative intensity
68.4486	187
145.0806	455
171.0993	969
199.0919	999
