Mass spectrum: 7,25DihydroxyCholesterol; LC-ESI-QTOF; MS2; CE: 60;  [M-2H2O+H]+
Name: 7,25DihydroxyCholesterol
Class: Retinoids
Formula: C27H46O3
Exact mass: 418.34470
SMILES: [H][C@@]12CC[C@H]([C@H](C)CCCC(C)(C)O)[C@@]1(C)CC[C@@]1([H])[C@@]2([H])[C@H](O)C=C2C[C@@H](O)CC[C@]12C
InChI: InChI=1S/C27H46O3/c1-17(7-6-12-25(2,3)30)20-8-9-21-24-22(11-14-27(20,21)5)26(4)13-10-19(28)15-18(26)16-23(24)29/h16-17,19-24,28-30H,6-15H2,1-5H3/t17-,19+,20-,21+,22+,23-,24+,26+,27-/m1/s1
Instrument: impact II
Instrument type: LC-ESI-QTOF
Ms type: MS2
Ion mode: POSITIVE
Ionization: ESI
Collision energy: 60
Column name: Acquity CSHC18
Retention time: 1.802 min
Base peak: 383.33060
Precursor m/z: 383.33060
Precursor type: [M-2H2O+H]+
m/z	relative intensity
129.5735	860
143.0852	995
156.0929	999
