Mass spectrum: C16 Carnitine; ESI-TOF; MS2; CE: 0.6458333;  [M+H]+
Name: C16 Carnitine
Class: NA
Formula: C23H45NO4
Exact mass: 399.33486
SMILES: [H]C([H])([H])C([H])([H])C([H])([H])C([H])([H])C([H])([H])C([H])([H])C([H])([H])C([H])([H])C([H])([H])C([H])([H])C([H])([H])C([H])([H])C([H])([H])C([H])([H])C([H])([H])C(=O)OC([H])(C([H])([H])C(=O)[O-])C([H])([H])[N+](C([H])([H])[H])(C([H])([H])[H])C([H])([H])[H]
InChI: InChI=1S/C23H45NO4/c1-5-6-7-8-9-10-11-12-13-14-15-16-17-18-23(27)28-21(19-22(25)26)20-24(2,3)4/h21H,5-20H2,1-4H3
Instrument: waters xevo g2 TOF
Instrument type: ESI-TOF
Ms type: MS2
Ion mode: POSITIVE
Ionization: ESI
Collision energy: 0.6458333
Column name: Acquity CSHC18
Retention time: 4.949 min
Base peak: 400.34286
Precursor m/z: 400.34286
Precursor type: [M+H]+
m/z	relative intensity
60.0815	18
71.0859	3
81.0701	10
83.086	12
85.0656	562
86.0322	55
87.0332	5
95.0855	18
97.1016	8
109.1016	15
111.1172	3
123.1167	10
125.1324	2
137.1324	6
144.102	62
145.1057	5
165.1642	2
221.2257	3
239.2371	67
240.2405	13
257.2476	11
258.2508	1
341.2685	146
342.272	33
343.2743	4
363.2488	3
400.3423	999
401.3456	269
