Mass spectrum: N-Dodecanoyl-L-homoserine lactone; LC-ESI-ITFT; MS2; CE: 10;  [M+H]+
Name: N-Dodecanoyl-L-homoserine lactone
Class: NA
Formula: C16H29NO3
Exact mass: 283.21474
SMILES: CCCCCCCCCCCC(=O)N[C@H]1CCOC1=O
InChI: InChI=1S/C16H29NO3/c1-2-3-4-5-6-7-8-9-10-11-15(18)17-14-12-13-20-16(14)19/h14H,2-13H2,1H3,(H,17,18)/t14-/m0/s1
Instrument: Thermo Scientific Q-Exactive Focus
Instrument type: LC-ESI-ITFT
Ms type: MS2
Ion mode: POSITIVE
Ionization: ESI
Collision energy: 10
Column name: Acquity CSHC18
Retention time: NA
Base peak: 284.22202
Precursor m/z: 284.22202
Precursor type: [M+H]+
m/z	relative intensity
57.0704	83
71.086	80
74.0605	181
85.1015	66
95.0858	155
102.0552	999
109.1013	162
183.1743	699
266.211	98
284.2216	322
