Mass spectrum: 4-Aminohippuric acid; LC-ESI-ITFT; MS2; CE: 60;  [M+H]+
Name: 4-Aminohippuric acid
Class: Benzenoids; Benzene and substituted derivatives; Benzoic acids and derivatives
Formula: C9H10N2O3
Exact mass: 194.06914
SMILES: NC1=CC=C(C=C1)C(=O)NCC(O)=O
InChI: InChI=1S/C9H10N2O3/c10-7-3-1-6(2-4-7)9(14)11-5-8(12)13/h1-4H,5,10H2,(H,11,14)(H,12,13)
Instrument: Thermo Scientific Q-Exactive Focus
Instrument type: LC-ESI-ITFT
Ms type: MS2
Ion mode: POSITIVE
Ionization: ESI
Collision energy: 60
Column name: Acquity CSHC18
Retention time: 2.016 min
Base peak: 195.07642
Precursor m/z: 195.07642
Precursor type: [M+H]+
m/z	relative intensity
53.0028	37
56.05	4
65.0391	999
66.0342	4
75.0233	14
76.0312	4
92.0498	81
92.5224	10
110.0602	9
120.0445	5
