Mass spectrum: Isorhamnetin, 3-Methylquercetin; LC-ESI-QTOF; MS2; CE: 35.00;  [M+H]+
Name: Isorhamnetin, 3-Methylquercetin
Class: NA
Formula: C16H12O7
Exact mass: 316.0583
SMILES: COC1=C(C=CC(=C1)C2=C(C(=O)C3=C(C=C(C=C3O2)O)O)O)O
InChI: InChI=1S/C16H12O7/c1-22-11-4-7(2-3-9(11)18)16-15(21)14(20)13-10(19)5-8(17)6-12(13)23-16/h2-6,17-19,21H,1H3
Instrument: Bruker MicrOTOF-Q
Instrument type: LC-ESI-QTOF
Ms type: MS2
Ion mode: POSITIVE
Ionization: ESI
Collision energy: 35.00
Column name: Acquity CSHC18
Retention time: NA
Base peak: 317.0650
Precursor m/z: 317.0650
Precursor type: [M+H]+
m/z	relative intensity
153.018	45
154.0217	47
155.0465	49
173.06	50
179.0346	51
183.0444	52
187.0386	53
189.0546	55
190.0607	57
192.0415	67
200.047	69
201.0544	69
203.0344	69
204.0395	73
217.0502	77
218.0551	79
219.0312	100
228.0418	130
229.0495	161
230.0524	166
231.0296	166
232.0355	170
245.0447	181
246.0508	193
247.0519	197
256.0372	230
257.0442	285
260.0303	310
273.0401	373
274.0468	420
284.0319	567
285.0398	854
286.0432	865
301.0339	973
302.0426	999
