Mass spectrum: L-Lactic acid; LC-ESI-ITFT; MS2; CE: 20;  [M-H]-
Name: L-Lactic acid
Class: Organic acids and derivatives; Hydroxy acids and derivatives; Alpha hydroxy acids and derivatives
Formula: C3H6O3
Exact mass: 90.03169
SMILES: C[C@H](O)C(O)=O
InChI: InChI=1S/C3H6O3/c1-2(4)3(5)6/h2,4H,1H3,(H,5,6)/t2-/m0/s1
Instrument: Thermo Scientific Q-Exactive Focus
Instrument type: LC-ESI-ITFT
Ms type: MS2
Ion mode: NEGATIVE
Ionization: ESI
Collision energy: 20
Column name: Acquity CSHC18
Retention time: 0.642 min
Base peak: 89.02442
Precursor m/z: 89.02442
Precursor type: [M-H]-
m/z	relative intensity
67.6287	136
68.7724	133
73.93	127
74.9024	129
79.2975	153
83.9215	127
86.7462	137
89.0232	999
90.5886	144
90.5995	141
