Mass spectrum: Cysteic acid; LC-ESI-ITFT; MS2; CE: 60;  [M+H]+
Name: Cysteic acid
Class: Organic acids and derivatives; Carboxylic acids and derivatives; Amino acids, peptides, and analogues
Formula: C3H7NO5S
Exact mass: 169.00449
SMILES: NC(CS(O)(=O)=O)C(O)=O
InChI: InChI=1S/C3H7NO5S/c4-2(3(5)6)1-10(7,8)9/h2H,1,4H2,(H,5,6)(H,7,8,9)
Instrument: Thermo Scientific Q-Exactive Focus
Instrument type: LC-ESI-ITFT
Ms type: MS2
Ion mode: POSITIVE
Ionization: ESI
Collision energy: 60
Column name: Acquity CSHC18
Retention time: 2.015 min
Base peak: 170.01176
Precursor m/z: 170.01176
Precursor type: [M+H]+
m/z	relative intensity
53.4088	845
55.9349	857
79.1351	876
89.5224	872
115.476	892
120.4869	880
131.2764	999
174.4578	858
183.8485	968
185.2587	915
