Mass spectrum: 8-iso-17-phenyl trinor Prostaglandin F2-beta; ESI-TOF; MS2; CE: 0.6458333;  [M+H]+
Name: 8-iso-17-phenyl trinor Prostaglandin F2-beta
Class: NA
Formula: C23H32O5
Exact mass: 388.22497
SMILES: O[C@H]1[C@@H](C/C=C\CCCC(O)=O)[C@@H](/C=C/[C@@H](O)CCC2=CC=CC=C2)[C@H](O)C1
InChI: InChI=1S/C23H32O5/c24-18(13-12-17-8-4-3-5-9-17)14-15-20-19(21(25)16-22(20)26)10-6-1-2-7-11-23(27)28/h1,3-6,8-9,14-15,18-22,24-26H,2,7,10-13,16H2,(H,27,28)/b6-1-,15-14+/t18-,19-,20+,21+,22+/m0/s1
Instrument: waters xevo g2 TOF
Instrument type: ESI-TOF
Ms type: MS2
Ion mode: POSITIVE
Ionization: ESI
Collision energy: 0.6458333
Column name: Acquity CSHC18
Retention time: 3.300 min
Base peak: 389.23297
Precursor m/z: 389.23297
Precursor type: [M+H]+
m/z	relative intensity
79.0565	32
88.074	20
91.0553	999
92.0591	46
105.0706	293
115.0584	52
116.0625	28
117.0707	510
118.0756	48
119.0858	104
121.1009	28
128.0616	54
129.0711	318
131.0869	902
133.1033	46
135.0806	18
141.0718	241
143.0879	245
145.1031	191
147.0815	41
149.0968	17
155.0844	119
157.1025	161
159.1373	49
165.071	68
167.0961	132
169.1018	256
170.1055	38
171.1157	164
173.0981	34
178.0784	35
179.0972	213
180.1321	17
181.1013	184
185.0958	47
187.112	77
191.0989	37
193.0995	99
195.1174	121
199.1121	47
207.1176	387
208.1217	68
209.132	35
213.1277	54
219.13	52
221.1334	90
233.1322	46
239.1411	18
247.1403	23
251.0539	83
254.04	40
255.1375	10
257.1303	26
271.1496	60
273.1636	73
275.225	36
289.1945	29
299.1792	196
309.1854	49
310.1916	8
317.1904	174
318.1937	31
333.0756	27
335.2005	350
336.2038	91
348.1246	17
351.104	70
352.1121	177
353.2092	51
363.1065	51
365.1382	72
373.1456	27
380.1067	52
381.1187	279
389.1163	34
391.1623	51
