Mass spectrum: UDP; LC-ESI-QTOF; MS2; CE: 100;  [M-H]-
Name: UDP
Class: Pyrimidine ribonucleoside diphosphates
Formula: C9H14N2O12P2
Exact mass: 404.0022
SMILES: O[C@H]1[C@@H](O)[C@@H](O[C@@H]1COP(O)(=O)OP(O)(O)=O)N1C=CC(=O)NC1=O
InChI: InChI=1S/C9H14N2O12P2/c12-5-1-2-11(9(15)10-5)8-7(14)6(13)4(22-8)3-21-25(19,20)23-24(16,17)18/h1-2,4,6-8,13-14H,3H2,(H,19,20)(H,10,12,15)(H2,16,17,18)/t4-,6-,7-,8-/m1/s1
Instrument: impact II
Instrument type: LC-ESI-QTOF
Ms type: MS2
Ion mode: NEGATIVE
Ionization: ESI
Collision energy: 100
Column name: Acquity CSHC18
Retention time: 1.873 min
Base peak: 402.9944
Precursor m/z: 402.9944
Precursor type: [M-H]-
m/z	relative intensity
62.964	6
78.9122	1
78.9589	999
78.9683	22
79.0744	1
79.0825	1
79.1145	1
79.1535	1
79.1916	1
79.2098	1
79.2191	1
79.3984	1
79.9572	2
80.9635	3
96.9693	2
