Mass spectrum: Herbacetin 8-methyl ether; LC-ESI-QTOF; MS2; CE: 50eV;  [M+H]+
Name: Herbacetin 8-methyl ether
Class: Flavonol
Formula: C16H12O7
Exact mass: 316.0583
SMILES: COC1=C(C=C(C2=C1OC(=C(C2=O)O)C3=CC=C(C=C3)O)O)O
InChI: InChI=1S/C16H12O7/c1-22-15-10(19)6-9(18)11-12(20)13(21)14(23-16(11)15)7-2-4-8(17)5-3-7/h2-6,17-19,21H,1H3
Instrument: TIMS-TOF Pro, Bruker Daltonik; Elute UHPLC System, Bruker Daltonik
Instrument type: LC-ESI-QTOF
Ms type: MS2
Ion mode: POSITIVE
Ionization: ESI
Collision energy: 50eV
Column name: Acquity CSHC18
Retention time: 7.454 min
Base peak: 317.0640
Precursor m/z: 317.0640
Precursor type: [M+H]+
Precursor intensity: 435811.7
m/z	relative intensity
25.8378	2
58.1437	1
70.9968	1
72.9973	2
78.0471	2
84.0146	1
94.0038	1
105.0331	4
106.042	8
107.0492	5
112.0154	4
118.0405	5
119.0406	2
121.0292	6
123.9971	1
131.0503	6
134.0349	8
135.036	1
139.001	2
140.0093	8
144.0423	1
145.0284	3
147.0436	3
154.5124	2
156.1279	2
159.0396	2
160.0256	2
161.0609	1
168.0046	3
171.0435	3
175.0382	2
183.0414	1
199.0334	1
200.0442	2
203.0354	2
211.039	5
227.0175	2
228.0418	6
233.0283	1
245.0447	4
257.0425	5
258.0482	1
273.0371	9
274.0474	4
283.0129	1
285.0317	2
286.0344	3
301.0328	16
301.9943	2
302.0219	4
303.043	27
304.0464	1
305.8557	1
315.8616	1
316.9679	1
317.0159	9
317.064	999
