Mass spectrum: Farinosin; LC-ESI-ITFT; MS2; CE: 50eV;  [M+H]+
Name: Farinosin
Class: Sesquiterpenelactone; Eudesmanolide
Formula: C15H18O4
Exact mass: 262.1205
SMILES: C[C@@]12C[C@@H]3[C@H](C[C@H]1C(=C)C(=O)C=C2)[C@@](C(=O)O3)(C)O
InChI: InChI=1S/C15H18O4/c1-8-9-6-10-12(19-13(17)15(10,3)18)7-14(9,2)5-4-11(8)16/h4-5,9-10,12,18H,1,6-7H2,2-3H3/t9-,10-,12+,14+,15+/m0/s1
Instrument: Q Exactive Plus, ThermoFisher Scientific
Instrument type: LC-ESI-ITFT
Ms type: MS2
Ion mode: POSITIVE
Ionization: ESI
Collision energy: 50eV
Column name: Acquity CSHC18
Retention time: 5.059 min
Base peak: 263.1280
Precursor m/z: 263.1280
Precursor type: [M+H]+
Precursor intensity: 38723300
m/z	relative intensity
105.0521	121
119.0677	293
133.0831	404
145.0829	428
147.0985	428
157.0833	541
171.0992	591
175.0929	999
