Mass spectrum: 15(S)-15-methyl Prostaglandin F2-alpha methyl ester; ESI-TOF; MS2; CE: 0.6458333;  [M+H]+
Name: 15(S)-15-methyl Prostaglandin F2-alpha methyl ester
Class: NA
Formula: C22H38O5
Exact mass: 382.27192
SMILES: CCCCCC(C)(C=CC1C(CC(C1CC=CCCCC(=O)OC)O)O)O
InChI: InChI=1S/C22H38O5/c1-4-5-10-14-22(2,26)15-13-18-17(19(23)16-20(18)24)11-8-6-7-9-12-21(25)27-3/h6,8,13,15,17-20,23-24,26H,4-5,7,9-12,14,16H2,1-3H3
Instrument: waters xevo g2 TOF
Instrument type: ESI-TOF
Ms type: MS2
Ion mode: POSITIVE
Ionization: ESI
Collision energy: 0.6458333
Column name: Acquity CSHC18
Retention time: 4.181 min
Base peak: 383.27992
Precursor m/z: 383.27992
Precursor type: [M+H]+
m/z	relative intensity
67.0543	47
69.0696	70
81.071	288
83.0658	32
95.0866	129
99.0813	18
101.0607	74
107.0872	234
109.103	71
121.1021	262
123.1179	59
129.071	450
130.0758	33
132.0904	52
134.1031	16
135.1185	104
137.1339	48
142.079	49
147.1189	182
148.1206	22
149.0974	268
151.149	28
158.1057	60
160.1213	18
161.0625	109
163.1487	53
165.0955	16
170.1068	14
174.0921	11
175.1134	311
177.1296	21
181.1041	146
183.067	123
185.0974	442
186.1	43
188.1136	12
189.1637	96
190.1693	11
191.1081	34
198.1352	12
199.0701	248
201.1286	133
203.1081	197
214.1696	13
215.1794	53
217.1234	180
223.0624	37
224.1519	30
227.1644	117
231.1751	39
235.1353	60
239.0433	56
249.1865	42
251.1997	39
253.1957	186
254.1982	27
255.2108	265
256.217	29
259.191	22
269.2276	76
271.2069	156
272.2103	17
273.2187	26
279.2113	259
280.2112	42
287.2366	56
293.2476	24
297.2221	461
298.2261	94
303.2324	144
304.2341	33
315.2328	241
316.2338	40
325.1482	21
327.1629	171
328.1677	28
329.2481	761
330.2515	170
331.2582	21
340.2132	16
341.1737	11
343.1777	36
346.1594	289
347.2076	167
348.1632	33
349.2585	6
351.1645	11
359.1899	999
360.1926	190
362.2269	124
362.7283	51
365.2685	25
369.2353	15
371.2338	112
372.1797	30
374.1671	105
375.1978	305
375.7429	17
376.1658	124
378.1705	92
380.1629	26
384.2417	528
384.7441	226
385.2085	107
