Mass spectrum: Fluprostenol serinol amide; ESI-TOF; MS2; CE: 0.6458333;  [M+H]+
Name: Fluprostenol serinol amide
Class: NA
Formula: C26H36F3NO7
Exact mass: 531.24439
SMILES: O[C@H](/C=C/[C@@H]1[C@@H](C/C=C\CCCC(N([H])C(CO)CO)=O)[C@@H](O)C[C@H]1O)COC2=CC=CC(C(F)(F)F)=C2
InChI: InChI=1S/C26H36F3NO7/c27-26(28,29)17-6-5-7-20(12-17)37-16-19(33)10-11-22-21(23(34)13-24(22)35)8-3-1-2-4-9-25(36)30-18(14-31)15-32/h1,3,5-7,10-12,18-19,21-24,31-35H,2,4,8-9,13-16H2,(H,30,36)/b3-1-,11-10+/t19-,21-,22-,23+,24-/m1/s1
Instrument: waters xevo g2 TOF
Instrument type: ESI-TOF
Ms type: MS2
Ion mode: POSITIVE
Ionization: ESI
Collision energy: 0.6458333
Column name: Acquity CSHC18
Retention time: 3.328 min
Base peak: 532.25239
Precursor m/z: 532.25239
Precursor type: [M+H]+
m/z	relative intensity
74.0602	335
92.0713	996
93.071	54
102.0569	21
107.0852	13
117.0711	83
119.0861	73
121.0293	118
128.0712	265
129.0714	180
130.0761	28
131.0865	120
133.1022	43
142.0762	35
144.0911	10
145.1022	119
146.0792	11
147.1168	341
153.0671	18
154.0818	23
155.0871	152
157.102	103
158.0817	237
159.0804	61
161.1325	76
165.0714	25
169.1008	96
171.1166	254
172.1222	24
173.1327	45
176.9854	28
181.1014	129
183.1176	826
185.1311	10
186.1145	33
189.1285	424
190.1329	48
197.1331	214
198.1345	40
199.1124	51
200.1296	10
201.1271	72
202.1291	6
207.1288	133
208.1212	17
215.1439	48
225.1288	76
226.1312	53
243.1369	70
260.1635	21
261.1526	12
262.181	285
272.1617	12
280.1909	254
281.1971	35
288.1954	13
289.0585	7
290.1772	135
291.1802	23
298.1795	120
299.1881	25
316.1912	999
317.1937	169
324.1275	30
328.1249	12
331.0972	8
334.153	188
335.2043	59
342.1373	11
346.1357	9
352.2115	140
353.2137	23
361.097	98
362.0988	22
388.1265	6
461.1432	9
479.134	98
496.2311	44
514.2404	78
515.2389	10
522.1735	28
532.2517	178
533.2528	44
