Mass spectrum: 5-Aminolevulinic acid; ESI-TOF; MS2; CE: 6.0000000;  [M+H]+
Name: 5-Aminolevulinic acid
Class: NA
Formula: C5H9NO3
Exact mass: 131.05824
SMILES: NCC(=O)CCC(O)=O
InChI: InChI=1S/C5H9NO3/c6-3-4(7)1-2-5(8)9/h1-3,6H2,(H,8,9)
Instrument: waters xevo g2 TOF
Instrument type: ESI-TOF
Ms type: MS2
Ion mode: POSITIVE
Ionization: ESI
Collision energy: 6.0000000
Column name: Acquity CSHC18
Retention time: 0.506 min
Base peak: 132.06624
Precursor m/z: 132.06624
Precursor type: [M+H]+
m/z	relative intensity
72.0632	11
86.0607	999
87.064	46
108.9624	6
113.0788	43
113.9643	361
116.06	35
124.9565	13
131.9824	811
132.9556	3
133.9291	32
