Mass spectrum: Niacinamide; LC-ESI-ITFT; MS2; CE: 30;  [M+H]+
Name: Niacinamide
Class: Organoheterocyclic compounds; Pyridines and derivatives; Pyridinecarboxylic acids and derivatives
Formula: C6H6N2O
Exact mass: 122.04801
SMILES: NC(=O)C1=CC=CN=C1
InChI: InChI=1S/C6H6N2O/c7-6(9)5-2-1-3-8-4-5/h1-4H,(H2,7,9)
Instrument: Thermo Scientific Q-Exactive Focus
Instrument type: LC-ESI-ITFT
Ms type: MS2
Ion mode: POSITIVE
Ionization: ESI
Collision energy: 30
Column name: Acquity CSHC18
Retention time: 0.683 min
Base peak: 123.05529
Precursor m/z: 123.05529
Precursor type: [M+H]+
m/z	relative intensity
51.0236	29
52.0188	16
53.0392	332
56.9654	7
68.05	19
78.0343	111
79.0421	20
80.05	999
96.0448	379
123.0555	34
