Mass spectrum: Nicotinamide; LC-ESI-QTOF; MS2; CE: 15.00;  [M+H]+
Name: Nicotinamide
Class: NA
Formula: C6H6N2O
Exact mass: 122.0480
SMILES: C1=CC(=CN=C1)C(=O)N
InChI: InChI=1S/C6H6N2O/c7-6(9)5-2-1-3-8-4-5/h1-4H,(H2,7,9)
Instrument: Bruker MicrOTOF-Q
Instrument type: LC-ESI-QTOF
Ms type: MS2
Ion mode: POSITIVE
Ionization: ESI
Collision energy: 15.00
Column name: Acquity CSHC18
Retention time: NA
Base peak: 123.0553
Precursor m/z: 123.0553
Precursor type: [M+H]+
m/z	relative intensity
80.045	5
95.054	2
96.0414	34
97.0431	1
105.0429	8
106.0262	47
107.0298	2
121.0335	1
122.4871	1
123.0537	999
123.2259	2
123.3087	1
123.3679	1
123.4207	2
123.5218	1
124.0556	61
125.0623	2
