Mass spectrum: rhamnetin; LC-ESI-ITFT; MS2; CE: 0.3;  [M+H]+
Name: rhamnetin
Class: flavonols
Formula: C16H12O7
Exact mass: 316.0583
SMILES: COC1=CC(=C2C(=C1)OC(=C(C2=O)O)C3=CC(=C(C=C3)O)O)O
InChI: InChI=1S/C16H12O7/c1-22-8-5-11(19)13-12(6-8)23-16(15(21)14(13)20)7-2-3-9(17)10(18)4-7/h2-6,17-19,21H,1H3
Instrument: LTQ-Orbitrap XL hybrid mass spectrometer (Thermo Scientific)
Instrument type: LC-ESI-ITFT
Ms type: MS2
Ion mode: POSITIVE
Ionization: ESI
Collision energy: 0.3
Column name: Acquity CSHC18
Retention time: 10.774 min
Base peak: 317.0664
Precursor m/z: 317.0664
Precursor type: [M+H]+
Precursor intensity: 28034220
m/z	relative intensity
75.405	14
75.6378	17
76.333	16
77.7549	14
80.404	15
82.922	15
86.5328	17
91.993	15
95.2974	15
98.7438	18
103.1581	19
104.0775	14
110.0356	15
121.0285	33
125.0233	34
137.0235	159
139.0393	48
141.0549	19
147.1912	12
147.9569	13
149.0237	30
151.0393	49
161.1841	43
163.0393	43
167.0343	193
179.0344	591
180.0421	41
189.0189	28
194.5089	14
194.5216	11
194.5438	10
194.5503	11
196.0985	17
196.1788	43
201.0556	11
205.4066	17
209.0453	73
215.071	100
219.0295	29
221.2287	10
227.0711	46
229.0503	28
233.0817	31
243.0661	999
244.0694	44
261.0768	284
269.1296	11
271.0612	916
272.0646	36
286.5478	41
288.064	234
289.0719	83
299.0562	495
300.0596	26
302.0432	143
317.0669	238
