Mass spectrum: naringenin; LC-ESI-QTOF; MS2; CE: -10, -35, -60V;  [M-H]-
Name: naringenin
Class: NA
Formula: C15H12O5
Exact mass: 272.0685
SMILES: C1C(OC2=CC(=CC(=C2C1=O)O)O)C3=CC=C(C=C3)O
InChI: InChI=1S/C15H12O5/c16-9-3-1-8(2-4-9)13-7-12(19)15-11(18)5-10(17)6-14(15)20-13/h1-6,13,16-18H,7H2
Instrument: TripleToF 5600; Sciex
Instrument type: LC-ESI-QTOF
Ms type: MS2
Ion mode: NEGATIVE
Ionization: ESI
Collision energy: -10, -35, -60V
Column name: Acquity CSHC18
Retention time: 14.267 min
Base peak: 271.0625
Precursor m/z: 271.0625
Precursor type: [M-H]-
Precursor intensity: 297103.3
m/z	relative intensity
65.0024	129
66.0067	6
68.9964	8
80.0261	4
83.0148	53
93.0284	65
93.0324	65
107.0147	81
108.0203	12
117.0315	14
117.0422	14
119.0529	319
120.053	36
125.0251	4
133.0286	4
136.0182	4
145.0282	18
146.0312	2
151.0044	433
152.0122	44
158.0334	5
161.061	13
165.021	29
173.1	3
177.024	98
178.0265	11
185.0636	10
187.043	21
199.0408	10
201.0213	3
213.0402	3
225.0691	14
226.142	2
228.1567	2
230.1783	3
241.0528	13
253.0623	4
257.0503	12
269.0464	48
270.0453	17
270.2193	3
270.2541	7
271.0623	999
