Mass spectrum: Pyroglutamic acid; LC-ESI-ITFT; MS2; CE: 30;  [M+H]+
Name: Pyroglutamic acid
Class: Organic acids and derivatives; Carboxylic acids and derivatives; Amino acids, peptides, and analogues
Formula: C5H7NO3
Exact mass: 129.04259
SMILES: OC(=O)[C@@H]1CCC(=O)N1
InChI: InChI=1S/C5H7NO3/c7-4-2-1-3(6-4)5(8)9/h3H,1-2H2,(H,6,7)(H,8,9)/t3-/m0/s1
Instrument: Thermo Scientific Q-Exactive Focus
Instrument type: LC-ESI-ITFT
Ms type: MS2
Ion mode: POSITIVE
Ionization: ESI
Collision energy: 30
Column name: Acquity CSHC18
Retention time: 0.914 min
Base peak: 130.04987
Precursor m/z: 130.04987
Precursor type: [M+H]+
m/z	relative intensity
56.05	999
71.9168	20
72.9376	155
84.0448	930
90.9481	35
100.0408	17
108.9585	29
113.9639	58
123.0706	16
131.9743	17
