Mass spectrum: Enterodiol; LC-ESI-ITFT; MS2; CE: 30;  [M-H]-
Name: Enterodiol
Class: Lignans, neolignans and related compounds; Dibenzylbutane lignans; Dibenzylbutanediol lignans
Formula: C18H22O4
Exact mass: 302.15181
SMILES: OC[C@H](CC1=CC(O)=CC=C1)[C@H](CO)CC1=CC(O)=CC=C1
InChI: InChI=1S/C18H22O4/c19-11-15(7-13-3-1-5-17(21)9-13)16(12-20)8-14-4-2-6-18(22)10-14/h1-6,9-10,15-16,19-22H,7-8,11-12H2/t15-,16-/m0/s1
Instrument: Thermo Scientific Q-Exactive Focus
Instrument type: LC-ESI-ITFT
Ms type: MS2
Ion mode: NEGATIVE
Ionization: ESI
Collision energy: 30
Column name: Acquity CSHC18
Retention time: 0.928 min
Base peak: 301.14453
Precursor m/z: 301.14453
Precursor type: [M-H]-
m/z	relative intensity
93.0333	79
107.049	171
109.0647	113
121.0283	221
133.0647	106
146.0726	113
241.123	101
253.1231	999
271.1339	268
301.1441	78
