Mass spectrum: HISTAMINE; LC-ESI-QFT; MS2; CE: 30eV;  [M+H]+
Name: HISTAMINE
Class: NA
Formula: C5H9N3
Exact mass: 111.07965
SMILES: NCCC1=CNC=N1
InChI: InChI=1S/C5H9N3/c6-2-1-5-3-7-4-8-5/h3-4H,1-2,6H2,(H,7,8)
Instrument: Q-Exactive Orbitrap, Thermo Scientfic; Ultimate 3000 HPLC, Thermo Scientfic
Instrument type: LC-ESI-QFT
Ms type: MS2
Ion mode: POSITIVE
Ionization: ESI
Collision energy: 30eV
Column name: Acquity CSHC18
Retention time: 0.521 min
Base peak: 112.0869
Precursor m/z: 112.0869
Precursor type: [M+H]+
Precursor intensity: 179
m/z	relative intensity
52.5236	4
54.0345	4
54.6373	3
55.8993	3
56.0504	6
57.6085	3
65.274	4
67.0423	7
67.0548	4
68.0503	278
70.9427	29
70.9806	8
71.9302	21
71.9411	18
72.9381	5
76.4428	3
76.625	4
81.045	4
82.0533	20
83.0611	999
84.0121	7
84.0645	23
88.953	5
88.9909	7
94.6837	5
96.0582	55
96.0644	360
102.0226	6
107.0013	5
110.0719	4
111.9688	6
113.0845	25
113.0908	139
121.4881	4
134.4351	4
