Mass spectrum: Betulin; LC-ESI-QTOF; MS2; CE: 24.40;  [M-H2O+H]+
Name: Betulin
Class: NA
Formula: C30H50O2
Exact mass: 442.3811
SMILES: CC(=C)C1CCC2(C1C3CCC4C5(CCC(C(C5CCC4(C3(CC2)C)C)(C)C)O)C)CO
InChI: InChI=1S/C30H50O2/c1-19(2)20-10-15-30(18-31)17-16-28(6)21(25(20)30)8-9-23-27(5)13-12-24(32)26(3,4)22(27)11-14-29(23,28)7/h20-25,31-32H,1,8-18H2,2-7H3
Instrument: Bruker MicrOTOF-Q
Instrument type: LC-ESI-QTOF
Ms type: MS2
Ion mode: POSITIVE
Ionization: ESI
Collision energy: 24.40
Column name: Acquity CSHC18
Retention time: NA
Base peak: 425.3778
Precursor m/z: 425.3778
Precursor type: [M-H2O+H]+
m/z	relative intensity
119.0845	36
121.0979	37
123.1149	38
131.0821	39
133.0996	39
135.1152	40
136.1171	40
137.1306	40
138.1341	41
145.0995	45
147.1152	45
148.1175	45
149.1305	49
150.1358	49
151.1448	50
157.0993	51
159.1155	52
161.1319	52
162.1338	53
163.1476	56
171.1176	58
173.1331	59
174.1374	60
175.1475	60
176.1545	64
177.1634	65
178.1671	67
179.1462	68
185.1311	71
187.1476	74
188.1514	75
189.1639	88
190.1673	90
191.178	97
192.1809	102
199.1487	103
201.1639	106
202.1669	110
203.1787	113
204.1829	114
205.1937	118
206.1977	122
207.1736	135
213.1644	135
214.1687	140
215.1794	142
216.1815	144
217.1953	152
218.199	167
219.1817	168
227.1794	169
228.1838	180
229.1943	189
230.198	190
231.2078	198
233.1909	219
241.1961	227
243.2097	228
245.2153	237
247.2065	260
255.2105	283
256.2141	287
257.226	288
259.2332	288
269.2261	365
270.2302	365
271.2427	380
272.2424	401
273.2265	413
283.2424	422
285.2549	431
287.2396	533
297.2584	539
311.2753	540
323.2709	545
351.3064	557
395.3683	592
407.3669	898
408.3689	999
425.3784	36
426.3797	37
