Mass spectrum: Isovitexin 2''-O-arabinoside; LC-ESI-QTOF; MS2; CE: 20-40eV;  [M-H]-
Name: Isovitexin 2''-O-arabinoside
Class: Flavonoid C- glycosides
Formula: C26H28O14
Exact mass: 564.1479
SMILES: C=1C=C(C=CC1C2=CC(C3=C(C=C(C(=C3O)C4(C(C(C(C(CO)(O4)[H])(O)[H])(O)[H])(OC5(C(C(C(CO5)(O)[H])(O)[H])(O)[H])[H])[H])[H])O)O2)=O)O
InChI: InChI=1S/C26H28O14/c27-7-16-20(33)22(35)25(40-26-23(36)19(32)13(31)8-37-26)24(39-16)18-12(30)6-15-17(21(18)34)11(29)5-14(38-15)9-1-3-10(28)4-2-9/h1-6,13,16,19-20,22-28,30-36H,7-8H2
Instrument: Impact II, Bruker; Dionex 3000, Thermo Scientific
Instrument type: LC-ESI-QTOF
Ms type: MS2
Ion mode: POSITIVE
Ionization: ESI
Collision energy: 20-40eV
Column name: Acquity CSHC18
Retention time: 4.553 min
Base peak: 563.1417
Precursor m/z: 563.1417
Precursor type: [M-H]-
Precursor intensity: 773640.5
m/z	relative intensity
175.022	251
292.9169	282
293.2609	284
412.888	291
413.3019	302
413.7727	306
562.6966	314
562.8069	332
562.9566	334
563.3753	386
563.5852	999
