Mass spectrum: Ribitol; ESI-TOF; MS2; CE: 0.6458333;  [M+H]+
Name: Ribitol
Class: NA
Formula: C5H12O5
Exact mass: 152.06847
SMILES: OCC(O)C(O)C(O)CO
InChI: InChI=1S/C5H12O5/c6-1-3(8)5(10)4(9)2-7/h3-10H,1-2H2
Instrument: waters xevo g2 TOF
Instrument type: ESI-TOF
Ms type: MS2
Ion mode: POSITIVE
Ionization: ESI
Collision energy: 0.6458333
Column name: Acquity CSHC18
Retention time: 0.564 min
Base peak: 153.07647
Precursor m/z: 153.07647
Precursor type: [M+H]+
m/z	relative intensity
57.0358	28
69.0347	653
70.0379	24
71.0502	2
73.0292	2
81.0342	2
83.0082	2
83.9664	58
87.0445	36
89.0082	72
89.9407	110
91.9552	24
95.0079	306
96.0161	323
96.9618	379
99.0448	648
100.0482	19
105.0209	558
108.0157	102
110.0131	732
110.9759	145
112.991	296
114.0258	361
114.9714	578
115.9639	2
117.0381	770
118.0588	2
119.0385	96
126.0262	277
126.9481	186
127.9602	198
128.9869	141
130.9661	148
131.9889	890
132.9985	153
135.066	2
136.0693	2
139.9847	663
141.0318	573
144.9611	158
145.9474	165
148.0364	2
149.0187	2
150.0182	2
153.0764	2
154.0056	46
155.012	2
158.0252	341
159.0273	276
160.0877	2
160.9521	18
162.0265	2
163.0452	2
163.5475	2
164.019	2
164.5628	2
169.9669	227
171.0026	219
172.0504	192
172.5523	2
173.0326	126
174.0475	2
175.0584	2
176.0197	157
177.0374	132
179.5382	2
180.0368	2
180.5382	2
181.0132	2
181.5388	2
182.0346	2
182.5368	2
183.034	2
183.9819	38
184.9835	12
187.9774	596
192.981	60
194.1182	2
195.0452	58
195.9826	134
205.9896	156
206.9954	999
207.4968	2
208.9964	202
217.939	13
219.046	69
221.0553	2
222.003	2
223.9986	460
225.0046	127
228.0592	2
232.0023	2
238.0427	74
239.02	2
242.9715	2
246.0628	2
248.0847	2
248.5864	2
251.0711	19
252.0357	2
255.0011	2
258.0229	12
262.014	333
263.0178	2
266.0091	2
267.0152	123
269.0176	2
273.0158	2
275.8904	2
279.0208	2
281.0168	2
282.12	2
283.0294	2
286.1492	2
292.025	160
295.0085	2
299.963	71
300.9635	14
308.4884	2
309.4876	2
309.9878	2
314.927	98
316.9405	173
318.9424	22
320.9794	77
329.1029	191
330.1061	2
343.0914	2
344.0971	2
349.0618	2
354.0614	2
356.0615	2
357.0684	2
358.0565	2
359.0635	546
360.0674	75
361.0649	2
365.0602	2
371.0541	2
373.9382	2
374.9483	111
379.07	2
380.9537	2
408.9835	18
412.9857	2
422.969	50
423.9726	2
436.9237	14
490.1013	2
563.0367	2
575.0384	2
627.9516	2
780.0181	2
