Mass spectrum: Hydroxyproline; ESI-TOF; MS2; CE: 6.0000000;  [M+H]+
Name: Hydroxyproline
Class: NA
Formula: C5H9NO3
Exact mass: 131.05824
SMILES: OC1CNC(C1)C(O)=O
InChI: InChI=1S/C5H9NO3/c7-3-1-4(5(8)9)6-2-3/h3-4,6-7H,1-2H2,(H,8,9)
Instrument: waters xevo g2 TOF
Instrument type: ESI-TOF
Ms type: MS2
Ion mode: POSITIVE
Ionization: ESI
Collision energy: 6.0000000
Column name: Acquity CSHC18
Retention time: 0.535 min
Base peak: 132.06624
Precursor m/z: 132.06624
Precursor type: [M+H]+
m/z	relative intensity
68.0503	2
86.0607	47
87.0641	1
98.9635	3
99.9698	12
114.0554	25
115.058	1
117.9805	2
132.0661	999
137.9874	26
142.9638	17
145.0178	1
149.961	5
154.0487	4
158.0032	5
163.9762	2
186.9923	4
194.1179	1
205.9889	1
216.0184	3
217.1046	4
226.0404	1
231.9906	3
241.8848	4
246.8629	2
272.0462	2
275.9912	2
301.0722	1
317.0444	2
365.1049	4
447.0949	9
448.0985	2
