Mass spectrum: C24:1 Ceramide (d18:1/24:1(15Z)); ESI-TOF; MS2; CE: 6.0000000;  [M+H]+
Name: C24:1 Ceramide (d18:1/24:1(15Z))
Class: NA
Formula: C42H81NO3
Exact mass: 647.62165
SMILES: [H]OC([H])([H])C([H])(N([H])C(=O)C([H])([H])C([H])([H])C([H])([H])C([H])([H])C([H])([H])C([H])([H])C([H])([H])C([H])([H])C([H])([H])C([H])([H])C([H])([H])C([H])([H])C([H])([H])C([H])=C([H])C([H])([H])C([H])([H])C([H])([H])C([H])([H])C([H])([H])C([H])([H])C([H])([H])C([H])([H])[H])C([H])(O[H])C([H])=C([H])C([H])([H])C([H])([H])C([H])([H])C([H])([H])C([H])([H])C([H])([H])C([H])([H])C([H])([H])C([H])([H])C([H])([H])C([H])([H])C([H])([H])C([H])([H])[H]
InChI: InChI=1S/C42H81NO3/c1-3-5-7-9-11-13-15-17-18-19-20-21-22-23-24-26-28-30-32-34-36-38-42(46)43-40(39-44)41(45)37-35-33-31-29-27-25-16-14-12-10-8-6-4-2/h17-18,35,37,40-41,44-45H,3-16,19-34,36,38-39H2,1-2H3,(H,43,46)
Instrument: waters xevo g2 TOF
Instrument type: ESI-TOF
Ms type: MS2
Ion mode: POSITIVE
Ionization: ESI
Collision energy: 6.0000000
Column name: Acquity CSHC18
Retention time: 12.168 min
Base peak: 648.62965
Precursor m/z: 648.62965
Precursor type: [M+H]+
m/z	relative intensity
129.0308	10
129.9804	10
145.9558	9
173.9635	10
319.7808	16
325.7817	18
326.2841	7
334.7864	25
335.2902	7
343.7917	76
344.2938	64
344.7965	27
385.7678	8
612.6072	11
613.6092	5
630.6186	600
631.6217	559
632.6257	136
633.6247	7
648.6291	999
649.6323	485
