Mass spectrum: BW 245C; ESI-TOF; MS2; CE: 6.0000000;  [M+H]+
Name: BW 245C
Class: NA
Formula: C19H32N2O5
Exact mass: 368.23112
SMILES: O=C(N1[H])[C@H](CCCCCCC(O)=O)N(CCC(O)C2CCCCC2)C1=O
InChI: InChI=1S/C19H32N2O5/c22-16(14-8-4-3-5-9-14)12-13-21-15(18(25)20-19(21)26)10-6-1-2-7-11-17(23)24/h14-16,22H,1-13H2,(H,23,24)(H,20,25,26)/t15-,16?/m0/s1
Instrument: waters xevo g2 TOF
Instrument type: ESI-TOF
Ms type: MS2
Ion mode: POSITIVE
Ionization: ESI
Collision energy: 6.0000000
Column name: Acquity CSHC18
Retention time: 3.341 min
Base peak: 369.23912
Precursor m/z: 369.23912
Precursor type: [M+H]+
m/z	relative intensity
139.987	3
177.1623	10
186.0823	2
195.1029	59
204.0968	27
211.1091	96
216.1063	2
220.11	12
225.1208	4
229.1194	43
230.1832	4
241.119	21
243.1309	4
267.135	2
275.2771	19
315.2065	22
333.2179	281
334.2216	61
339.0647	21
341.0758	2
351.2274	999
352.2315	232
353.2302	22
369.2384	225
370.2431	41
