Mass spectrum: Caffeic acid; LC-ESI-QTOF; MS2; CE: 50eV;  [M-H]-
Name: Caffeic acid
Class: Phenylpropanoid
Formula: C9H8O4
Exact mass: 180.0423
SMILES: C1=CC(=C(C=C1C=CC(=O)O)O)O
InChI: InChI=1S/C9H8O4/c10-7-3-1-6(5-8(7)11)2-4-9(12)13/h1-5,10-11H,(H,12,13)
Instrument: TIMS-TOF Pro, Bruker Daltonik; Elute UHPLC System, Bruker Daltonik
Instrument type: LC-ESI-QTOF
Ms type: MS2
Ion mode: NEGATIVE
Ionization: ESI
Collision energy: 50eV
Column name: Acquity CSHC18
Retention time: 4.416 min
Base peak: 179.0338
Precursor m/z: 179.0338
Precursor type: [M-H]-
Precursor intensity: 5126
m/z	relative intensity
49.7295	18
89.0373	69
117.0321	42
135.0444	999
136.0467	86
