Mass spectrum: Esculetin; LC-ESI-QTOF; MS2; CE: 50eV;  [M-H]-
Name: Esculetin
Class: Coumarin
Formula: C9H6O4
Exact mass: 178.0266
SMILES: C1=CC(=O)OC2=CC(=C(C=C21)O)O
InChI: InChI=1S/C9H6O4/c10-6-3-5-1-2-9(12)13-8(5)4-7(6)11/h1-4,10-11H
Instrument: TIMS-TOF Pro, Bruker Daltonik; Elute UHPLC System, Bruker Daltonik
Instrument type: LC-ESI-QTOF
Ms type: MS2
Ion mode: NEGATIVE
Ionization: ESI
Collision energy: 50eV
Column name: Acquity CSHC18
Retention time: 4.369 min
Base peak: 177.0184
Precursor m/z: 177.0184
Precursor type: [M-H]-
Precursor intensity: 40980.63
m/z	relative intensity
41.0015	20
51.022	22
65.0387	64
65.6569	15
67.0182	41
68.9972	24
75.0222	15
79.0168	79
81.0324	31
82.0033	15
89.0388	135
93.0327	71
95.0126	27
105.0324	303
106.0367	28
111.0035	8
121.0281	35
133.0273	416
134.0312	45
149.0209	93
177.0163	999
