Mass spectrum: 1,2-dimyristoyl-sn-glycero-3-phosphoethanolamine; ESI-TOF; MS2; CE: 0.6458333;  [M+H]+
Name: 1,2-dimyristoyl-sn-glycero-3-phosphoethanolamine
Class: NA
Formula: C33H66NO8P
Exact mass: 635.45260
SMILES: [H]C([H])([H])C([H])([H])C([H])([H])C([H])([H])C([H])([H])C([H])([H])C([H])([H])C([H])([H])C([H])([H])C([H])([H])C([H])([H])C([H])([H])C([H])([H])C(=O)OC([H])([H])C([H])(OC(=O)C([H])([H])C([H])([H])C([H])([H])C([H])([H])C([H])([H])C([H])([H])C([H])([H])C([H])([H])C([H])([H])C([H])([H])C([H])([H])C([H])([H])C([H])([H])[H])C([H])([H])OP(=O)([O-])OC([H])([H])C([H])([H])[N+]([H])([H])[H]
InChI: InChI=1S/C33H66NO8P/c1-3-5-7-9-11-13-15-17-19-21-23-25-32(35)39-29-31(30-41-43(37,38)40-28-27-34)42-33(36)26-24-22-20-18-16-14-12-10-8-6-4-2/h31H,3-30,34H2,1-2H3,(H,37,38)
Instrument: waters xevo g2 TOF
Instrument type: ESI-TOF
Ms type: MS2
Ion mode: POSITIVE
Ionization: ESI
Collision energy: 0.6458333
Column name: Acquity CSHC18
Retention time: 10.090 min
Base peak: 636.46060
Precursor m/z: 636.46060
Precursor type: [M+H]+
m/z	relative intensity
69.0712	4
71.087	4
81.0709	10
83.0867	7
85.102	8
95.0865	29
109.102	23
111.1168	10
123.1173	14
137.0331	9
161.964	2
164.009	18
193.0766	5
211.2062	74
212.211	10
213.9575	3
254.2489	11
285.2425	16
347.1302	6
403.1561	127
404.1595	14
408.25	2
421.1683	6
495.4405	999
496.4439	344
497.4475	69
498.4489	8
517.4223	6
544.1739	14
615.3955	5
616.404	2
631.3646	70
632.3668	15
636.459	70
637.4628	26
