Mass spectrum: 14:0 Lyso PG; ESI-TOF; MS2; CE: 0.6458333;  [M+H]+
Name: 14:0 Lyso PG
Class: NA
Formula: C20H40NaO9P
Exact mass: 478.23076
SMILES: [Na+].[H]OC([H])([H])C([H])(O[H])C([H])([H])OP(=O)([O-])OC([H])([H])C([H])(O[H])C([H])([H])OC(=O)C([H])([H])C([H])([H])C([H])([H])C([H])([H])C([H])([H])C([H])([H])C([H])([H])C([H])([H])C([H])([H])C([H])([H])C([H])([H])C([H])([H])C([H])([H])[H]
InChI: InChI=1S/C20H41O9P.Na/c1-2-3-4-5-6-7-8-9-10-11-12-13-20(24)27-15-19(23)17-29-30(25,26)28-16-18(22)14-21;/h18-19,21-23H,2-17H2,1H3,(H,25,26);/q;+1/p-1
Instrument: waters xevo g2 TOF
Instrument type: ESI-TOF
Ms type: MS2
Ion mode: POSITIVE
Ionization: ESI
Collision energy: 0.6458333
Column name: Acquity CSHC18
Retention time: 8.518 min
Base peak: 479.23876
Precursor m/z: 479.23876
Precursor type: [M+H]+
m/z	relative intensity
71.0865	23
81.0707	25
85.1019	27
98.9848	42
109.1021	39
155.0108	74
192.958	59
195.0034	74
228.9793	54
285.1234	999
286.246	134
323.2254	27
324.2294	40
325.2347	36
339.197	27
403.1552	204
403.6574	30
404.1578	46
409.1707	21
421.2343	149
422.2379	32
439.2101	34
449.177	19
479.2371	301
480.2405	49
