Mass spectrum: Vanillic acid; LC-ESI-QTOF; MS2; CE: 7-62eV;  [M-H]-
Name: Vanillic acid
Class: Phenolics
Formula: C8H8O4
Exact mass: 168.0423
SMILES: COC1=C(C=CC(=C1)C(=O)O)O
InChI: InChI=1S/C8H8O4/c1-12-7-4-5(8(10)11)2-3-6(7)9/h2-4,9H,1H3,(H,10,11)
Instrument: Bruker MicrOTOF-Q
Instrument type: LC-ESI-QTOF
Ms type: MS2
Ion mode: NEGATIVE
Ionization: ESI
Collision energy: 7-62eV
Column name: Acquity CSHC18
Retention time: 22.277 min
Base peak: 167.0343
Precursor m/z: 167.0343
Precursor type: [M-H]-
Precursor intensity: 5452.5
m/z	relative intensity
108.0375	136
123.0634	229
152.0338	236
153.0443	980
167.0589	999
