Mass spectrum: Glucosamine 6-phosphate; ESI-TOF; MS2; CE: 0.6458333;  [M+H]+
Name: Glucosamine 6-phosphate
Class: NA
Formula: C6H14NO8P
Exact mass: 259.04570
SMILES: NC1C(O)OC(COP(O)(O)=O)C(O)C1O
InChI: InChI=1S/C6H14NO8P/c7-3-5(9)4(8)2(15-6(3)10)1-14-16(11,12)13/h2-6,8-10H,1,7H2,(H2,11,12,13)
Instrument: waters xevo g2 TOF
Instrument type: ESI-TOF
Ms type: MS2
Ion mode: POSITIVE
Ionization: ESI
Collision energy: 0.6458333
Column name: Acquity CSHC18
Retention time: 0.541 min
Base peak: 260.05370
Precursor m/z: 260.05370
Precursor type: [M+H]+
m/z	relative intensity
80.0506	270
97.9695	999
98.0611	361
98.9849	30
100.9575	73
108.0453	836
109.0291	81
126.0557	721
130.0092	2
130.0094	2
138.9912	2
142.9918	2
143.96	28
144.0664	2
178.9429	167
186.982	2
206.0219	130
207.0251	2
217.858	29
219.9705	2
224.0323	2
225.0336	2
235.9406	2
242.0441	43
243.0456	2
260.0539	98
519.1008	17
