Mass spectrum: ASPARTATE; LC-ESI-QFT; MS2; CE: 30eV;  [M+H]+
Name: ASPARTATE
Class: NA
Formula: C4H7NO4
Exact mass: 133.03751
SMILES: N[C@@H](CC(O)=O)C(O)=O
InChI: InChI=1S/C4H7NO4/c5-2(4(8)9)1-3(6)7/h2H,1,5H2,(H,6,7)(H,8,9)/t2-/m0/s1
Instrument: Q-Exactive Orbitrap, Thermo Scientfic; Ultimate 3000 HPLC, Thermo Scientfic
Instrument type: LC-ESI-QFT
Ms type: MS2
Ion mode: POSITIVE
Ionization: ESI
Collision energy: 30eV
Column name: Acquity CSHC18
Retention time: 0.570 min
Base peak: 134.0448
Precursor m/z: 134.0448
Precursor type: [M+H]+
Precursor intensity: 158
m/z	relative intensity
50.1218	6
50.7767	6
60.3844	7
69.0865	8
70.0295	247
71.5517	8
75.0215	9
75.0277	57
77.4778	9
80.5848	8
89.0434	67
90.0556	179
91.0527	21
91.0589	307
91.0618	14
92.0598	103
103.9667	8
110.1957	8
115.0701	8
116.0347	999
117.0382	21
120.5169	8
126.2133	8
128.4967	8
128.8604	9
133.0743	80
133.0805	283
134.0451	731
134.081	79
135.0441	13
143.1983	9
