Mass spectrum: Prostaglandin F2-alpha dimethyl amide; ESI-TOF; MS2; CE: 6.0000000;  [M+H]+
Name: Prostaglandin F2-alpha dimethyl amide
Class: NA
Formula: C22H39NO4
Exact mass: 381.28791
SMILES: O[C@@H]1[C@H](C/C=C\CCCC(N(C)C)=O)[C@@H](/C=C/[C@@H](O)CCCCC)[C@H](O)C1
InChI: InChI=1S/C22H39NO4/c1-4-5-8-11-17(24)14-15-19-18(20(25)16-21(19)26)12-9-6-7-10-13-22(27)23(2)3/h6,9,14-15,17-21,24-26H,4-5,7-8,10-13,16H2,1-3H3/b9-6-,15-14+/t17-,18+,19+,20-,21+/m0/s1
Instrument: waters xevo g2 TOF
Instrument type: ESI-TOF
Ms type: MS2
Ion mode: POSITIVE
Ionization: ESI
Collision energy: 6.0000000
Column name: Acquity CSHC18
Retention time: 3.642 min
Base peak: 382.29591
Precursor m/z: 382.29591
Precursor type: [M+H]+
m/z	relative intensity
114.0924	4
128.1074	4
156.1012	1
158.1176	14
167.0723	6
180.1237	2
192.6144	10
194.1544	1
201.618	38
202.1216	6
210.6249	4
218.1533	1
220.1696	1
232.1687	4
234.1859	3
241.1953	8
242.1994	1
244.1709	2
246.1851	4
247.2059	1
248.2018	2
257.1903	3
265.1949	2
283.2059	37
284.2087	6
290.2474	13
291.2492	2
292.264	153
293.2675	29
294.2663	2
301.2149	5
302.248	110
303.2507	21
304.2571	1
318.2781	4
320.2592	139
321.26	26
322.2626	2
328.2636	686
329.2665	160
330.2714	18
345.1752	10
346.2742	433
347.2783	93
348.2782	6
364.2846	999
365.2896	269
366.2907	35
367.2969	2
