Mass spectrum: 2,5-dihydroxybenzoic acid; LC-ESI-QTOF; MS2; CE: 15;  [M-H]-
Name: 2,5-dihydroxybenzoic acid
Class: NA
Formula: C7H6O4
Exact mass: 154.0266
SMILES: C1=CC(=C(C=C1O)C(=O)O)O
InChI: InChI=1S/C7H6O4/c8-4-1-2-6(9)5(3-4)7(10)11/h1-3,8-9H,(H,10,11)
Instrument: Bruker MicrOTOF-Q
Instrument type: LC-ESI-QTOF
Ms type: MS2
Ion mode: NEGATIVE
Ionization: ESI
Collision energy: 15
Column name: Acquity CSHC18
Retention time: NA
Base peak: 153.0193
Precursor m/z: 153.0193
Precursor type: [M-H]-
m/z	relative intensity
45.2315	15
45.9231	19
46.7054	13
47.7672	13
49.6353	14
50.2166	13
51.699	13
52.8734	16
53.5994	12
54.0799	12
54.6347	13
57.0465	14
57.7443	12
58.3391	17
59.2305	19
60.821	16
61.6218	16
63.778	13
65.2604	15
69.1553	13
70.5498	14
71.8224	12
72.6418	13
73.5799	14
76.0085	20
76.5494	13
77.9944	19
78.5956	14
80.1736	13
81.7254	14
83.7481	13
85.1654	13
86.7333	15
87.8418	17
90.0955	13
91.1467	14
91.9285	12
92.6651	13
93.7485	16
95.9391	17
97.4874	17
98.2589	13
100.2239	12
100.8047	13
101.3817	30
102.363	16
104.735	14
108.5392	999
110.0323	238
123.0067	15
153.0199	166
