Mass spectrum: N-ACETYLSEROTONIN; LC-ESI-QFT; MS2; CE: 30eV;  [M+H]+
Name: N-ACETYLSEROTONIN
Class: NA
Formula: C12H14N2O2
Exact mass: 218.10553
SMILES: CC(=O)NCCC1=CNC2=C1C=C(O)C=C2
InChI: InChI=1S/C12H14N2O2/c1-8(15)13-5-4-9-7-14-12-3-2-10(16)6-11(9)12/h2-3,6-7,14,16H,4-5H2,1H3,(H,13,15)
Instrument: Q-Exactive Orbitrap, Thermo Scientfic; Ultimate 3000 HPLC, Thermo Scientfic
Instrument type: LC-ESI-QFT
Ms type: MS2
Ion mode: POSITIVE
Ionization: ESI
Collision energy: 30eV
Column name: Acquity CSHC18
Retention time: 5.474 min
Base peak: 219.1128
Precursor m/z: 219.1128
Precursor type: [M+H]+
Precursor intensity: 199
m/z	relative intensity
54.3817	4
59.1113	4
60.045	9
71.6442	3
71.9394	3
73.5042	3
79.4193	4
83.2484	3
86.0605	135
90.8153	4
105.0702	17
108.5313	4
115.0545	67
117.0575	25
126.997	5
132.0808	166
133.0515	5
133.0648	20
134.06	28
141.9586	9
142.0652	24
143.0731	6
148.0756	30
159.0676	67
159.9688	8
161.0789	849
167.1201	5
174.0911	16
177.1019	89
184.0755	80
190.0861	32
195.6561	4
198.4777	4
201.102	124
202.0862	999
203.0894	58
213.09	5
219.1127	265
219.1743	24
220.1167	10
235.4147	5
