Mass spectrum: lactucin-15-oxalate; ESI-QTOF; MS2; CE: 25V ± 15V CES;  [M+H]+
Name: lactucin-15-oxalate
Class: Sesquiterpene lactone
Formula: C17H16O8
Exact mass: 348.0845
SMILES: CC1=C2C(C3C(C(C1)O)C(=C)C(=O)O3)C(=CC2=O)COC(=O)C(=O)O
InChI: InChI=1S/C17H16O8/c1-6-3-9(18)12-7(2)16(22)25-14(12)13-8(4-10(19)11(6)13)5-24-17(23)15(20)21/h4,9,12-14,18H,2-3,5H2,1H3,(H,20,21)
Instrument: TripleToF 5600, Sciex
Instrument type: ESI-QTOF
Ms type: MS2
Ion mode: POSITIVE
Ionization: ESI
Collision energy: 25V ± 15V CES
Column name: Acquity CSHC18
Retention time: 3.883 min
Base peak: 349.0945
Precursor m/z: 349.0945
Precursor type: [M+H]+
Precursor intensity: 2099820
m/z	relative intensity
69.0317	9
81.0487	14
121.0482	17
131.0659	20
133.0589	22
145.0818	25
147.0819	27
151.07	29
157.089	29
158.085	32
160.0667	33
161.073	36
168.0768	37
169.0803	40
172.0644	44
173.077	47
178.0694	47
182.0684	51
184.0683	55
185.0848	61
187.0914	65
189.0759	74
198.0859	74
199.0657	76
200.0618	81
201.0745	90
212.0635	103
217.0643	125
225.0931	174
241.0798	251
243.0918	527
277.0808	999
