Mass spectrum: strobopinin; LC-ESI-ITFT; MS2; CE: 0.3;  [M-H]-
Name: strobopinin
Class: flavanones
Formula: C16H14O4
Exact mass: 270.0892
SMILES: CC1=C(C2=C(C=C1O)OC(CC2=O)C3=CC=CC=C3)O
InChI: InChI=1S/C16H14O4/c1-9-11(17)7-14-15(16(9)19)12(18)8-13(20-14)10-5-3-2-4-6-10/h2-7,13,17,19H,8H2,1H3
Instrument: LTQ-Orbitrap XL hybrid mass spectrometer (Thermo Scientific)
Instrument type: LC-ESI-ITFT
Ms type: MS2
Ion mode: NEGATIVE
Ionization: ESI
Collision energy: 0.3
Column name: Acquity CSHC18
Retention time: 12.150 min
Base peak: 269.0816
Precursor m/z: 269.0816
Precursor type: [M-H]-
Precursor intensity: 21832110
m/z	relative intensity
63.4475	15
73.2571	16
76.1697	15
77.5599	16
81.3541	14
83.042	15
83.3652	18
85.8214	15
87.5421	14
90.1072	16
90.9515	17
92.7741	16
97.0302	21
99.8505	16
103.22	19
110.4851	16
112.1569	16
117.5755	15
118.6283	15
121.0297	67
123.6234	16
123.7029	16
124.293	19
129.793	18
132.0294	18
143.6186	15
144.9855	17
147.0455	58
150.0335	43
152.5663	20
155.6455	23
157.2448	17
159.0819	60
164.4788	21
165.0196	378
166.9771	29
167.4751	17
168.0385	18
169.2943	18
170.4148	22
171.0453	27
173.1711	21
173.3052	21
175.6727	19
178.0272	141
178.5679	24
180.4039	19
181.1	22
183.0816	212
183.8589	22
184.2441	19
186.069	21
189.5917	20
190.1468	22
191.0356	70
193.1975	17
193.9815	19
196.8633	22
197.0961	38
201.0925	78
204.5238	18
204.8592	18
204.9147	19
206.7556	20
207.0819	48
210.0169	28
211.214	22
213.2999	23
216.7653	23
221.075	23
223.078	49
225.0922	635
227.0711	999
227.3019	18
230.9805	20
231.94	21
232.5884	26
232.7683	21
233.1136	22
236.0067	23
237.4329	22
238.6898	26
240.5066	18
240.7224	24
240.9925	22
241.0868	306
247.4264	20
249.6482	23
250.166	19
251.0715	78
251.5321	19
258.6179	20
261.5639	22
263.886	29
268.9838	34
269.0816	495
