Mass spectrum: Palustric acid; LC-ESI-QTOF; MS2; CE: 15.24;  [M+H]+
Name: Palustric acid
Class: NA
Formula: C20H30O2
Exact mass: 302.2246
SMILES: CC(C)C1=CC2=C(CC1)C3(CCCC(C3CC2)(C)C(=O)O)C
InChI: InChI=1S/C20H30O2/c1-13(2)14-6-8-16-15(12-14)7-9-17-19(16,3)10-5-11-20(17,4)18(21)22/h12-13,17H,5-11H2,1-4H3,(H,21,22)
Instrument: Bruker MicrOTOF-Q
Instrument type: LC-ESI-QTOF
Ms type: MS2
Ion mode: POSITIVE
Ionization: ESI
Collision energy: 15.24
Column name: Acquity CSHC18
Retention time: NA
Base peak: 303.2319
Precursor m/z: 303.2319
Precursor type: [M+H]+
m/z	relative intensity
121.0995	26
123.1153	28
124.1181	29
133.0999	29
135.1158	30
137.1318	32
139.1109	33
145.1001	36
147.1163	38
149.132	40
150.1352	40
159.1166	42
161.1327	51
163.1477	58
167.1072	62
173.1332	64
175.148	64
179.1072	71
187.1485	72
193.1224	76
201.164	80
202.1678	84
205.1223	102
215.1794	114
219.1391	115
225.164	121
229.1623	142
243.1755	169
247.1698	186
257.2272	200
258.2303	245
267.2113	294
285.2213	310
286.2242	431
303.2324	566
304.236	999
