Mass spectrum: (E)-p-Coumaric acid; LC-ESI-QTOF; MS2; CE: 15.00;  [M+H]+
Name: (E)-p-Coumaric acid
Class: NA
Formula: C9H8O3
Exact mass: 164.0473
SMILES: C1=CC(=CC=C1C=CC(=O)O)O
InChI: InChI=1S/C9H8O3/c10-8-4-1-7(2-5-8)3-6-9(11)12/h1-6,10H,(H,11,12)
Instrument: Bruker MicrOTOF-Q
Instrument type: LC-ESI-QTOF
Ms type: MS2
Ion mode: POSITIVE
Ionization: ESI
Collision energy: 15.00
Column name: Acquity CSHC18
Retention time: NA
Base peak: 165.0546
Precursor m/z: 165.0546
Precursor type: [M+H]+
m/z	relative intensity
91.05	133
92.06	23
95.05	22
118.15	16
119.05	999
120.05	140
123.04	37
146.93	16
147.04	976
148.05	103
256.58	19
