Mass spectrum: DEOXYGUANOSINE; LC-ESI-QFT; MS2; CE: 30eV;  [M-H]-
Name: DEOXYGUANOSINE
Class: NA
Formula: C10H13N5O4
Exact mass: 267.09675
SMILES: NC1=NC2=C(N=CN2[C@H]2C[C@H](O)[C@@H](CO)O2)C(=O)N1
InChI: InChI=1S/C10H13N5O4/c11-10-13-8-7(9(18)14-10)12-3-15(8)6-1-4(17)5(2-16)19-6/h3-6,16-17H,1-2H2,(H3,11,13,14,18)/t4-,5+,6+/m0/s1
Instrument: Q-Exactive Orbitrap, Thermo Scientfic; Ultimate 3000 HPLC, Thermo Scientfic
Instrument type: LC-ESI-QFT
Ms type: MS2
Ion mode: NEGATIVE
Ionization: ESI
Collision energy: 30eV
Column name: Acquity CSHC18
Retention time: 1.333 min
Base peak: 266.0895
Precursor m/z: 266.0895
Precursor type: [M-H]-
Precursor intensity: 115
m/z	relative intensity
50.7767	1
51.514	1
52.9987	1
53.0225	1
56.8178	1
59.0112	1
59.0123	27
60.1675	1
60.1913	1
65.0129	2
71.0123	3
78.0081	1
78.1485	1
82.0395	7
84.3115	1
89.0228	8
105.1031	1
107.0348	19
108.0187	20
126.0294	22
133.0141	111
134.0175	2
134.0345	8
149.033	9
151.0378	23
151.0441	60
176.0566	263
177.06	10
219.845	7
236.0784	1
243.0063	1
248.0786	9
266.0894	999
267.0932	55
