Mass spectrum: Acanthospermolid, 8-ß-angeloyloxy-14-oxo; LC-ESI-ITFT; MS2; CE: 50eV;  [M+H]+
Name: Acanthospermolid, 8-ß-angeloyloxy-14-oxo
Class: Sesquiterpenelactone; Melampolide
Formula: C20H24O5
Exact mass: 344.1624
SMILES: C\C=C(\C)C(=O)O[C@@H]1CC(=CCCC(C)=C[C@H]2OC(=O)C(=C)[C@H]12)C=O
InChI: InChI=1S/C20H24O5/c1-5-13(3)19(22)24-17-10-15(11-21)8-6-7-12(2)9-16-18(17)14(4)20(23)25-16/h5,8-9,11,16-18H,4,6-7,10H2,1-3H3/b12-9?,13-5-,15-8?/t16-,17-,18+/m1/s1
Instrument: Q Exactive Plus, ThermoFisher Scientific
Instrument type: LC-ESI-ITFT
Ms type: MS2
Ion mode: POSITIVE
Ionization: ESI
Collision energy: 50eV
Column name: Acquity CSHC18
Retention time: 8.669 min
Base peak: 345.1696
Precursor m/z: 345.1696
Precursor type: [M+H]+
Precursor intensity: 68170220
m/z	relative intensity
53.8216	27
55.055	105
55.612	28
68.9647	56
68.9685	154
83.0495	999
97.4362	43
110.4855	26
117.1668	29
149.096	32
152.7069	28
171.1176	59
181.1005	32
183.0814	30
199.1114	321
201.0899	47
227.1077	359
245.1161	318
309.1466	63
345.1716	176
