Mass spectrum: isonicotinic acid; LC-ESI-QTOF; MS2; CE: 15.00;  [M+H]+
Name: isonicotinic acid
Class: NA
Formula: C6H5NO2
Exact mass: 123.0320
SMILES: C1=CN=CC=C1C(=O)O
InChI: InChI=1S/C6H5NO2/c8-6(9)5-1-3-7-4-2-5/h1-4H,(H,8,9)
Instrument: Bruker MicrOTOF-Q
Instrument type: LC-ESI-QTOF
Ms type: MS2
Ion mode: POSITIVE
Ionization: ESI
Collision energy: 15.00
Column name: Acquity CSHC18
Retention time: NA
Base peak: 124.0393
Precursor m/z: 124.0393
Precursor type: [M+H]+
m/z	relative intensity
96.0408	18
97.0437	75
124.0377	267
125.0405	999
