Mass spectrum: gamma-Aminobutyric acid; LC-ESI-ITFT; MS2; CE: 40;  [M+H]+
Name: gamma-Aminobutyric acid
Class: Organic acids and derivatives; Carboxylic acids and derivatives; Amino acids, peptides, and analogues
Formula: C4H9NO2
Exact mass: 103.06333
SMILES: NCCCC(O)=O
InChI: InChI=1S/C4H9NO2/c5-3-1-2-4(6)7/h1-3,5H2,(H,6,7)
Instrument: Thermo Scientific Q-Exactive Focus
Instrument type: LC-ESI-ITFT
Ms type: MS2
Ion mode: POSITIVE
Ionization: ESI
Collision energy: 40
Column name: Acquity CSHC18
Retention time: 1.463 min
Base peak: 104.07061
Precursor m/z: 104.07061
Precursor type: [M+H]+
m/z	relative intensity
53.0028	999
55.0273	314
61.5713	323
63.4453	334
64.8613	330
74.9768	352
78.979	368
84.1516	347
95.0075	344
122.3864	359
