Mass spectrum: 3-METHOXYTYRAMINE; LC-ESI-QTOF; MS2; CE: 20;  [M+H]+
Name: 3-METHOXYTYRAMINE
Class: NA
Formula: C9H13NO2
Exact mass: 167.09463
SMILES: COC1=C(O)C=CC(CCN)=C1
InChI: InChI=1S/C9H13NO2/c1-12-9-6-7(4-5-10)2-3-8(9)11/h2-3,6,11H,4-5,10H2,1H3
Instrument: Agilent 6530Â Q-TOF LC/MS
Instrument type: LC-ESI-QTOF
Ms type: MS2
Ion mode: POSITIVE
Ionization: ESI
Collision energy: 20
Column name: NA
Retention time: 0.200 min
Base peak: 168.09776
Precursor m/z: 168.09776
Precursor type: [M+H]+
Precursor intensity: 65.5
m/z	relative intensity
41.0487	24
45.0313	25
50.0155	25
51.0298	25
52.0337	26
55.0166	27
57.037	28
63.0276	29
65.0907	29
66.0476	30
77.0662	31
79.0816	31
79.3877	32
80.0811	32
81.0637	33
89.0506	37
90.0594	40
91.4069	44
91.9098	45
92.0422	47
92.2976	48
92.5124	53
93.0755	55
95.085	59
103.0582	66
105.0722	68
107.0672	73
108.0718	87
118.0573	89
119.2818	146
119.7164	156
119.8356	172
120.0584	301
123.082	320
133.0685	336
135.0592	447
136.0902	540
151.2858	545
151.9055	699
152.0751	999
