Mass spectrum: Isoginkgetin; LC-ESI-QFT; MS2; CE: 15,30,45 (NCE);  [M+H]+
Name: Isoginkgetin
Class: NA
Formula: C32H22O10
Exact mass: 566.1213
SMILES: COC1=CC=C(C=C1)C1=CC(=O)C2=C(O)C=C(O)C(=C2O1)C1=C(OC)C=CC(=C1)C1=CC(=O)C2=C(O)C=C(O)C=C2O1
InChI: InChI=1S/C32H22O10/c1-39-18-6-3-15(4-7-18)26-14-24(38)31-22(36)12-21(35)29(32(31)42-26)19-9-16(5-8-25(19)40-2)27-13-23(37)30-20(34)10-17(33)11-28(30)41-27/h3-14,33-36H,1-2H3
Instrument: QE Focus, Thermo Scientfic; UPLC I-Class, Waters
Instrument type: LC-ESI-QFT
Ms type: MS2
Ion mode: POSITIVE
Ionization: ESI
Collision energy: 15,30,45 (NCE)
Column name: Acquity CSHC18
Retention time: 3.723 min
Base peak: 567.1285
Precursor m/z: 567.1285
Precursor type: [M+H]+
Precursor intensity: 21224350
m/z	relative intensity
50.983	1
55.3275	2
55.7784	1
60.9922	2
61.8816	2
62.7354	2
62.8065	2
115.1212	2
121.0283	12
129.3314	2
133.0647	4
135.0441	195
139.5225	2
147.1352	2
153.0182	16
206.4455	2
210.6565	2
283.0604	20
297.0762	12
325.0693	3
395.2716	2
403.0449	5
415.1185	23
417.0573	20
435.0706	13
515.1052	2
521.0873	11
535.1022	59
551.0959	3
552.1044	10
567.1284	999
