Mass spectrum: N-ACETYLASPARTATE; LC-ESI-QTOF; MS2; CE: 40;  [M+H]+
Name: N-ACETYLASPARTATE
Class: NA
Formula: C6H9NO5
Exact mass: 175.04807
SMILES: CC(=O)N[C@@H](CC(O)=O)C(O)=O
InChI: InChI=1S/C6H9NO5/c1-3(8)7-4(6(11)12)2-5(9)10/h4H,2H2,1H3,(H,7,8)(H,9,10)(H,11,12)/t4-/m0/s1
Instrument: Agilent 6530Â Q-TOF LC/MS
Instrument type: LC-ESI-QTOF
Ms type: MS2
Ion mode: POSITIVE
Ionization: ESI
Collision energy: 40
Column name: NA
Retention time: 0.200 min
Base peak: 176.05880
Precursor m/z: 176.05880
Precursor type: [M+H]+
Precursor intensity: 90.5
m/z	relative intensity
43.0098	724
43.0136	999
43.0174	877
43.0211	695
43.0249	589
43.0286	441
43.0324	333
43.0361	269
44.0458	301
44.0496	285
46.0187	277
46.0226	512
46.0264	547
46.0303	507
46.0342	422
46.0381	338
70.0196	388
70.0244	446
70.0292	367
74.0171	340
74.022	359
74.027	311
