Mass spectrum: Oxypeucedanin hydrate; LC-ESI-ITFT; MS2; CE: 45eV;  [M+H]+
Name: Oxypeucedanin hydrate
Class: coumarin
Formula: C16H16O6
Exact mass: 304.0947
SMILES: CC(C)(C(COC1=C2C=CC(=O)OC2=CC3=C1C=CO3)O)O
InChI: InChI=1S/C16H16O6/c1-16(2,19)13(17)8-21-15-9-3-4-14(18)22-12(9)7-11-10(15)5-6-20-11/h3-7,13,17,19H,8H2,1-2H3
Instrument: LTQ Orbitrap XL, Thermo Scientfic; Dionex Ultimate 300
Instrument type: LC-ESI-ITFT
Ms type: MS2
Ion mode: POSITIVE
Ionization: ESI
Collision energy: 45eV
Column name: Alltima C18
Retention time: 14.65 min
Base peak: 305.1021
Precursor m/z: 305.1021
Precursor type: [M+H]+
m/z	relative intensity
119.0901	26
147.0443	999
201.0342	903
