Mass spectrum: Acetamide; LC-ESI-ITFT; MS2; CE: 40;  [M+H]+
Name: Acetamide
Class: Organic acids and derivatives; Carboximidic acids and derivatives; Carboximidic acids
Formula: C2H5NO
Exact mass: 59.03711
SMILES: CC(N)=O
InChI: InChI=1S/C2H5NO/c1-2(3)4/h1H3,(H2,3,4)
Instrument: Thermo Scientific Q-Exactive Focus
Instrument type: LC-ESI-ITFT
Ms type: MS2
Ion mode: POSITIVE
Ionization: ESI
Collision energy: 40
Column name: Acquity CSHC18
Retention time: 1.092 min
Base peak: 60.04439
Precursor m/z: 60.04439
Precursor type: [M+H]+
m/z	relative intensity
53.2804	778
58.1613	787
58.6804	747
65.4981	890
70.7931	895
73.1209	735
76.5291	838
77.0361	801
78.9018	731
79.466	999
