Mass spectrum: Histamine; ESI-TOF; MS2; CE: 0.6458333;  [M+H]+
Name: Histamine
Class: NA
Formula: C5H9N3
Exact mass: 111.07965
SMILES: NCCC1=CNC=N1
InChI: InChI=1S/C5H9N3/c6-2-1-5-3-7-4-8-5/h3-4H,1-2,6H2,(H,7,8)
Instrument: waters xevo g2 TOF
Instrument type: ESI-TOF
Ms type: MS2
Ion mode: POSITIVE
Ionization: ESI
Collision energy: 0.6458333
Column name: Acquity CSHC18
Retention time: 0.447 min
Base peak: 112.08765
Precursor m/z: 112.08765
Precursor type: [M+H]+
m/z	relative intensity
83.0607	34
95.0609	999
96.0633	58
112.087	175
113.0903	2
113.943	287
113.9641	208
113.9642	352
135.9925	2
136.0872	2
137.9878	2
166.0081	25
173.98	2
178.1241	2
194.1205	2
204.1249	2
327.0906	2
