Mass spectrum: Vitexin 4''-O-glucoside; LC-ESI-QTOF; MS2; CE: 20-40eV;  [M+H]+
Name: Vitexin 4''-O-glucoside
Class: Flavonoid C- glycosides
Formula: C27H30O15
Exact mass: 594.1585
SMILES: C=1C=C(C=CC1C2=CC(C=3C(=CC(=C(C3O2)C4(C(C(C(C(CO)(O4)[H])(OC5(C(C(C(C(CO)(O5)[H])(O)[H])(O)[H])(O)[H])[H])[H])(O)[H])(O)[H])[H])O)O)=O)O
InChI: InChI=1S/C27H30O15/c28-7-15-19(34)20(35)23(38)27(41-15)42-24-16(8-29)40-26(22(37)21(24)36)18-12(32)5-11(31)17-13(33)6-14(39-25(17)18)9-1-3-10(30)4-2-9/h1-6,15-16,19-24,26-32,34-38H,7-8H2
Instrument: Impact II, Bruker; Dionex 3000, Thermo Scientific
Instrument type: LC-ESI-QTOF
Ms type: MS2
Ion mode: POSITIVE
Ionization: ESI
Collision energy: 20-40eV
Column name: Acquity CSHC18
Retention time: 4.426 min
Base peak: 595.1647
Precursor m/z: 595.1647
Precursor type: [M+H]+
Precursor intensity: 852281.6
m/z	relative intensity
313.175	106
323.073	188
433.236	261
595.3094	999
