Mass spectrum: Epitestosterone; LC-ESI-QTOF; MS2; CE: 40;  [M+H]+
Name: Epitestosterone
Class: NA
Formula: C19H28O2
Exact mass: 288.2089
SMILES: C[C@]12CC[C@H]3[C@H]([C@@H]1CC[C@H]2O)CCC4=CC(=O)CC[C@]34C
InChI: InChI=1S/C19H28O2/c1-18-9-7-13(20)11-12(18)3-4-14-15-5-6-17(21)19(15,2)10-8-16(14)18/h11,14-17,21H,3-10H2,1-2H3/t14-,15-,16-,17+,18-,19-/m0/s1
Instrument: Agilent 6560Â Ion Mobility Q-TOF LC/MS
Instrument type: LC-ESI-QTOF
Ms type: MS2
Ion mode: POSITIVE
Ionization: ESI
Collision energy: 40
Column name: Acquity CSHC18
Retention time: 0.200 min
Base peak: 289.2189
Precursor m/z: 289.2189
Precursor type: [M+H]+
Precursor intensity: 45.5
m/z	relative intensity
77.0373	392
77.0404	316
81.0671	999
81.0703	885
81.0734	650
81.0765	467
84.9944	403
91.053	514
91.0563	302
112.9192	435
112.9228	394
123.0778	345
