Mass spectrum: Methyl heptadecanoate; LC-ESI-ITFT; MS2; CE: 20;  [M+H]+
Name: Methyl heptadecanoate
Class: NA
Formula: C18H36O2
Exact mass: 284.27153
SMILES: CCCCCCCCCCCCCCCCC(=O)OC
InChI: InChI=1S/C18H36O2/c1-3-4-5-6-7-8-9-10-11-12-13-14-15-16-17-18(19)20-2/h3-17H2,1-2H3
Instrument: Thermo Scientific Q-Exactive Focus
Instrument type: LC-ESI-ITFT
Ms type: MS2
Ion mode: POSITIVE
Ionization: ESI
Collision energy: 20
Column name: Acquity CSHC18
Retention time: 0.631 min
Base peak: 285.27881
Precursor m/z: 285.27881
Precursor type: [M+H]+
m/z	relative intensity
57.0705	999
67.0548	273
69.0704	492
71.086	550
81.0703	288
83.086	305
95.0859	353
103.0757	311
285.1704	328
285.3344	481
