Mass spectrum: N-Hexanoyl-L-homoserine lactone; LC-ESI-ITFT; MS2; CE: 60;  [M+H]+
Name: N-Hexanoyl-L-homoserine lactone
Class: NA
Formula: C10H17NO3
Exact mass: 199.12084
SMILES: CCCCCC(=O)N[C@H]1CCOC1=O
InChI: InChI=1S/C10H17NO3/c1-2-3-4-5-9(12)11-8-6-7-14-10(8)13/h8H,2-7H2,1H3,(H,11,12)/t8-/m0/s1
Instrument: Thermo Scientific Q-Exactive Focus
Instrument type: LC-ESI-ITFT
Ms type: MS2
Ion mode: POSITIVE
Ionization: ESI
Collision energy: 60
Column name: Acquity CSHC18
Retention time: 1.734 min
Base peak: 200.12811
Precursor m/z: 200.12811
Precursor type: [M+H]+
m/z	relative intensity
53.0028	217
55.0547	180
55.9349	181
56.05	999
57.0848	118
72.9376	151
125.6678	116
142.9489	118
189.431	120
195.8276	120
