Mass spectrum: DL-O-Phosphoserine; LC-ESI-ITFT; MS2; CE: 100;  [M-H]-
Name: DL-O-Phosphoserine
Class: Organic acids and derivatives; Carboxylic acids and derivatives; Amino acids, peptides, and analogues
Formula: C3H8NO6P
Exact mass: 185.00892
SMILES: NC(COP(O)(O)=O)C(O)=O
InChI: InChI=1S/C3H8NO6P/c4-2(3(5)6)1-10-11(7,8)9/h2H,1,4H2,(H,5,6)(H2,7,8,9)
Instrument: Thermo Scientific Q-Exactive Focus
Instrument type: LC-ESI-ITFT
Ms type: MS2
Ion mode: NEGATIVE
Ionization: ESI
Collision energy: 100
Column name: Acquity CSHC18
Retention time: 2.584 min
Base peak: 184.00165
Precursor m/z: 184.00165
Precursor type: [M-H]-
m/z	relative intensity
62.9629	872
78.9578	999
92.5154	5
114.3819	2
115.69	2
155.7229	2
156.6706	2
171.3516	2
199.5154	2
203.8329	2
