Mass spectrum: 4-Methylcatechol; ESI-TOF; MS2; CE: 6.0000000;  [M+H]+
Name: 4-Methylcatechol
Class: NA
Formula: C7H8O2
Exact mass: 124.05243
SMILES: CC1=CC(O)=C(O)C=C1
InChI: InChI=1S/C7H8O2/c1-5-2-3-6(8)7(9)4-5/h2-4,8-9H,1H3
Instrument: waters xevo g2 TOF
Instrument type: ESI-TOF
Ms type: MS2
Ion mode: POSITIVE
Ionization: ESI
Collision energy: 6.0000000
Column name: Acquity CSHC18
Retention time: 2.167 min
Base peak: 125.06043
Precursor m/z: 125.06043
Precursor type: [M+H]+
m/z	relative intensity
67.0556	14
77.0398	3
78.0471	1
79.0549	6
94.0417	1
95.0045	174
96.0101	12
97.0092	6
98.5126	1
101.0264	1
101.5134	1
105.023	2
106.0423	3
107.0499	63
108.0347	1
109.0469	5
110.0366	1
110.5188	3
112.048	2
113.9905	9
116.0157	3
118.5055	3
122.0046	5
123.1768	769
124.0161	287
125.0152	53
125.5243	6
126.021	3
127.0575	3
128.021	7
129.0547	19
129.5147	1
130.0149	4
130.5225	1
131.0157	2
132.0078	1
133.5106	1
134.0297	3
134.5327	2
135.9937	7
136.5099	1
137.0602	94
138.0638	8
139.0344	8
140.0374	1
140.9632	1
142.2213	49
143.0714	5
143.5429	2
144.0345	3
144.515	2
145.0179	352
145.9944	19
147.0453	3
147.9838	2
148.5354	10
149.0086	3
149.5071	19
149.9912	53
150.5074	19
151.0242	165
151.5263	27
152.0124	8
152.5054	1
153.0553	999
154.012	62
154.5439	3
154.9955	1
156.0742	10
156.5212	16
157.0656	5
158.0224	3
158.5125	15
159.0398	27
159.5195	12
160.0385	22
160.5134	4
161.0259	4
161.9994	15
162.5324	67
163.0071	19
164.0413	1
164.5475	3
164.9883	9
165.5134	2
166.007	9
166.5328	5
167.0299	57
168.0264	6
169.0862	6
169.5213	4
170.1771	23
171.0199	17
171.5191	36
172.0293	23
172.5233	14
172.9735	10
173.516	3
173.9968	5
175.0182	204
176.0082	1
177.0086	4
177.5374	7
178.0299	2
178.5446	1
178.977	4
179.5525	1
179.994	12
180.5153	2
181.0264	5
181.5359	2
182.0144	4
183.03	6
185.0316	15
185.5241	1
186.0853	2
186.5234	3
187.5212	1
189.0504	14
189.5518	2
189.9839	2
192.0102	5
192.543	7
192.9839	5
193.5494	1
193.9931	1
194.5578	4
195.0015	8
195.9826	6
196.982	4
197.9836	4
199.0859	9
200.5287	2
201.0766	3
201.5298	2
203.0376	131
203.5393	31
204.0222	19
204.5581	7
205.0219	17
206.0513	3
207.0302	9
207.9823	2
209.0076	1
209.5273	1
209.9981	9
210.5251	6
211.0242	9
211.5332	6
212.0014	4
212.5263	1
212.9924	1
214.0693	2
218.043	4
218.9985	59
220.0028	13
221.0404	2
223.055	6
225.993	3
227.0545	3
232.0725	1
233.063	2
234.0223	1
236.0815	20
236.5837	4
237.0303	9
239.0031	3
240.0092	6
245.0818	18
247.0545	5
248.0746	6
248.5548	3
249.0096	31
250.0144	11
251.0125	1
253.0097	6
255.0233	3
256.0411	1
257.0392	1
264.014	2
267.0616	9
268.0603	2
269.0362	2
270.033	2
271.0412	19
272.0416	5
273.0433	3
280.053	4
281.0304	1
283.0729	1
284.0367	19
285.03	1
287.0244	1
289.0364	4
291.0326	1
292.0315	3
292.5269	4
296.0145	19
297.0164	13
298.0134	47
299.0033	61
300.0088	578
301.0127	190
302.0134	53
303.0093	17
304.006	11
305.007	3
306.0136	2
312.0095	4
313.0154	2
314.0461	1
319.0344	3
322.9986	7
327.0574	4
328.0322	5
330.0193	79
331.0232	25
332.0237	8
334.9842	1
339.9738	1
344.0573	1
345.0349	1
358.0351	3
359.041	1
360.0299	43
361.0339	14
362.0327	6
363.0403	1
365.1194	1
375.076	3
378.0992	1
389.0517	1
391.092	1
392.0762	2
394.0716	31
395.0384	4
396.0741	3
408.1071	1
417.0469	1
418.0503	6
419.057	7
420.0559	6
421.062	1
422.0456	43
423.0688	9
424.0674	13
425.0864	7
426.0854	3
445.0357	9
446.0322	3
452.0581	7
462.0097	1
475.0452	3
477.9824	1
481.1268	1
482.0664	3
484.0845	1
512.0771	3
513.0828	2
525.2895	2
535.982	1
544.0777	1
584.047	3
585.0523	1
596.0242	1
600.0162	6
601.0244	5
602.0235	2
613.0237	1
623.0108	3
745.0467	1
900.0305	1
901.0348	2
923.0169	1
