Mass spectrum: CAFFEINE; LC-ESI-QTOF; MS2; CE: 10;  [M+H]+
Name: CAFFEINE
Class: NA
Formula: C8H10N4O2
Exact mass: 194.0804
SMILES: CN1C=NC2=C1C(=O)N(C)C(=O)N2C
InChI: InChI=1S/C8H10N4O2/c1-10-4-9-6-5(10)7(13)12(3)8(14)11(6)2/h4H,1-3H3
Instrument: Agilent 6530Â Q-TOF LC/MS
Instrument type: LC-ESI-QTOF
Ms type: MS2
Ion mode: POSITIVE
Ionization: ESI
Collision energy: 10
Column name: NA
Retention time: 0.200 min
Base peak: 195.08886
Precursor m/z: 195.08886
Precursor type: [M+H]+
Precursor intensity: 136.5
m/z	relative intensity
45.0341	999
89.0569	289
107.0448	833
135.0401	333
195.118	360
