Mass spectrum: CYTOSINE; LC-ESI-QTOF; MS2; CE: 40;  [M+H]+
Name: CYTOSINE
Class: NA
Formula: C4H5N3O
Exact mass: 111.0433
SMILES: NC1=CC=NC(=O)N1
InChI: InChI=1S/C4H5N3O/c5-3-1-2-6-4(8)7-3/h1-2H,(H3,5,6,7,8)
Instrument: Agilent 6530Â Q-TOF LC/MS
Instrument type: LC-ESI-QTOF
Ms type: MS2
Ion mode: POSITIVE
Ionization: ESI
Collision energy: 40
Column name: NA
Retention time: 0.200 min
Base peak: 112.05151
Precursor m/z: 112.05151
Precursor type: [M+H]+
Precursor intensity: 96.5
m/z	relative intensity
40.0196	64
42.035	72
43.0304	76
44.0175	91
52.0195	134
67.0301	137
68.0145	157
69.0472	326
94.0376	820
95.0265	999
