Mass spectrum: Afzelin; LC-ESI-QFT; MS2; CE: 15,30,45 (NCE);  [M-H]-
Name: Afzelin
Class: NA
Formula: C21H20O10
Exact mass: 432.1056
SMILES: CC1OC(OC2=C(OC3=CC(O)=CC(O)=C3C2=O)C2=CC=C(O)C=C2)C(O)C(O)C1O
InChI: InChI=1S/C21H20O10/c1-8-15(25)17(27)18(28)21(29-8)31-20-16(26)14-12(24)6-11(23)7-13(14)30-19(20)9-2-4-10(22)5-3-9/h2-8,15,17-18,21-25,27-28H,1H3
Instrument: QE Focus, Thermo Scientfic; UPLC I-Class, Waters
Instrument type: LC-ESI-QFT
Ms type: MS2
Ion mode: NEGATIVE
Ionization: ESI
Collision energy: 15,30,45 (NCE)
Column name: Acquity CSHC18
Retention time: 1.823 min
Base peak: 431.0983
Precursor m/z: 431.0983
Precursor type: [M-H]-
Precursor intensity: 228536300
m/z	relative intensity
124.3848	67
166.6348	67
227.0351	999
257.0465	132
