Mass spectrum: Secoisolariciresinol; LC-ESI-ITFT; MS2; CE: 30;  [M-H]-
Name: Secoisolariciresinol
Class: Lignans, neolignans and related compounds; Dibenzylbutane lignans; Dibenzylbutanediol lignans
Formula: C20H26O6
Exact mass: 362.17294
SMILES: COC1=C(O)C=CC(C[C@@H](CO)[C@H](CO)CC2=CC(OC)=C(O)C=C2)=C1
InChI: InChI=1S/C20H26O6/c1-25-19-9-13(3-5-17(19)23)7-15(11-21)16(12-22)8-14-4-6-18(24)20(10-14)26-2/h3-6,9-10,15-16,21-24H,7-8,11-12H2,1-2H3/t15-,16-/m0/s1
Instrument: Thermo Scientific Q-Exactive Focus
Instrument type: LC-ESI-ITFT
Ms type: MS2
Ion mode: NEGATIVE
Ionization: ESI
Collision energy: 30
Column name: Acquity CSHC18
Retention time: 0.930 min
Base peak: 361.16565
Precursor m/z: 361.16565
Precursor type: [M-H]-
m/z	relative intensity
109.0283	157
121.0284	415
122.0362	318
137.0233	134
147.0441	121
154.0262	122
165.0548	999
179.0705	314
315.1238	107
346.1417	92
