Mass spectrum: 18:0-18:2 DG; ESI-TOF; MS2; CE: 0.6458333;  [M+H]+
Name: 18:0-18:2 DG
Class: NA
Formula: C39H72O5
Exact mass: 620.53798
SMILES: [H]OC([H])([H])C([H])(OC(=O)C([H])([H])C([H])([H])C([H])([H])C([H])([H])C([H])([H])C([H])([H])C([H])([H])C([H])=C([H])C([H])([H])C([H])=C([H])C([H])([H])C([H])([H])C([H])([H])C([H])([H])C([H])([H])[H])C([H])([H])OC(=O)C([H])([H])C([H])([H])C([H])([H])C([H])([H])C([H])([H])C([H])([H])C([H])([H])C([H])([H])C([H])([H])C([H])([H])C([H])([H])C([H])([H])C([H])([H])C([H])([H])C([H])([H])C([H])([H])C([H])([H])[H]
InChI: InChI=1S/C39H72O5/c1-3-5-7-9-11-13-15-17-19-21-23-25-27-29-31-33-38(41)43-36-37(35-40)44-39(42)34-32-30-28-26-24-22-20-18-16-14-12-10-8-6-4-2/h12,14,18,20,37,40H,3-11,13,15-17,19,21-36H2,1-2H3
Instrument: waters xevo g2 TOF
Instrument type: ESI-TOF
Ms type: MS2
Ion mode: POSITIVE
Ionization: ESI
Collision energy: 0.6458333
Column name: Acquity CSHC18
Retention time: 12.322 min
Base peak: 621.54598
Precursor m/z: 621.54598
Precursor type: [M+H]+
m/z	relative intensity
67.0553	19
69.0708	20
71.0862	31
81.0706	95
83.0862	53
85.1017	38
93.0705	21
95.086	144
97.1018	66
107.0862	24
109.1018	97
111.1171	24
119.0853	15
121.1014	37
123.1171	73
131.0019	14
133.102	22
135.1169	25
137.133	36
147.1169	20
149.1336	21
151.1481	16
161.1323	22
163.1488	18
175.1472	15
214.918	17
245.227	31
263.2378	78
264.24	11
267.269	38
285.2795	11
303.2282	10
319.2294	67
320.1984	64
323.2264	72
335.1663	156
336.1693	33
337.2747	255
338.2781	52
341.3061	329
342.3096	78
343.313	7
359.2568	18
375.22	27
537.394	23
603.5367	999
604.5397	453
605.5423	107
606.5461	14
617.5118	43
618.5146	20
621.547	19
622.5483	6
