Mass spectrum: Quercetin; LC-ESI-QTOF; MS2; CE: 35;  [M-H]-
Name: Quercetin
Class: NA
Formula: C15H10O7
Exact mass: 302.0427
SMILES: C1=CC(=C(C=C1C2=C(C(=O)C3=C(C=C(C=C3O2)O)O)O)O)O
InChI: InChI=1S/C15H10O7/c16-7-4-10(19)12-11(5-7)22-15(14(21)13(12)20)6-1-2-8(17)9(18)3-6/h1-5,16-19,21H
Instrument: Bruker MicrOTOF-Q
Instrument type: LC-ESI-QTOF
Ms type: MS2
Ion mode: NEGATIVE
Ionization: ESI
Collision energy: 35
Column name: Acquity CSHC18
Retention time: NA
Base peak: 301.0347
Precursor m/z: 301.0347
Precursor type: [M-H]-
m/z	relative intensity
93.0249	449
107.0127	562
108.0183	341
121.0339	999
135.0461	303
149.0285	300
151.0015	831
159.0454	289
161.0248	373
195.04	216
199.0438	470
227.0343	617
255.0317	257
