Mass spectrum: Trehalose; LC-ESI-QTOF; MS2; CE: 19.88;  [M+Na]+
Name: Trehalose
Class: NA
Formula: C12H22O11
Exact mass: 342.1162
SMILES: C(C1C(C(C(C(O1)OC2C(C(C(C(O2)CO)O)O)O)O)O)O)O
InChI: InChI=1S/C12H22O11/c13-1-3-5(15)7(17)9(19)11(21-3)23-12-10(20)8(18)6(16)4(2-14)22-12/h3-20H,1-2H2
Instrument: Bruker MicrOTOF-Q
Instrument type: LC-ESI-QTOF
Ms type: MS2
Ion mode: POSITIVE
Ionization: ESI
Collision energy: 19.88
Column name: Acquity CSHC18
Retention time: NA
Base peak: 365.1054
Precursor m/z: 365.1054
Precursor type: [M+Na]+
m/z	relative intensity
185.0406	11
203.0515	293
204.0561	16
364.8628	3
365.1045	999
365.7003	3
366.1091	129
367.109	28
