Mass spectrum: 6-Hydroxymelatonin; LC-ESI-ITFT; MS2; CE: 100;  [M+H]+
Name: 6-Hydroxymelatonin
Class: Organoheterocyclic compounds; Indoles and derivatives; Hydroxyindoles
Formula: C13H16N2O3
Exact mass: 248.11609
SMILES: COC1=C(O)C=C2NC=C(CCNC(C)=O)C2=C1
InChI: InChI=1S/C13H16N2O3/c1-8(16)14-4-3-9-7-15-11-6-12(17)13(18-2)5-10(9)11/h5-7,15,17H,3-4H2,1-2H3,(H,14,16)
Instrument: Thermo Scientific Q-Exactive Focus
Instrument type: LC-ESI-ITFT
Ms type: MS2
Ion mode: POSITIVE
Ionization: ESI
Collision energy: 100
Column name: Acquity CSHC18
Retention time: NA
Base peak: 249.12337
Precursor m/z: 249.12337
Precursor type: [M+H]+
m/z	relative intensity
50.0157	285
51.0236	999
53.0392	357
63.0235	290
65.0391	781
77.0391	303
89.039	292
91.0546	699
95.0496	705
117.0575	325
