Mass spectrum: TREHALOSE; LC-ESI-QTOF; MS2; CE: 20;  [M-H]-
Name: TREHALOSE
Class: NA
Formula: C12H22O11
Exact mass: 342.11621
SMILES: OC[C@H]1O[C@H](O[C@H]2O[C@H](CO)[C@@H](O)[C@H](O)[C@H]2O)[C@H](O)[C@@H](O)[C@@H]1O
InChI: InChI=1S/C12H22O11/c13-1-3-5(15)7(17)9(19)11(21-3)23-12-10(20)8(18)6(16)4(2-14)22-12/h3-20H,1-2H2/t3-,4-,5-,6-,7+,8+,9-,10-,11-,12-/m1/s1
Instrument: Agilent 6530Â Q-TOF LC/MS
Instrument type: LC-ESI-QTOF
Ms type: MS2
Ion mode: NEGATIVE
Ionization: ESI
Collision energy: 20
Column name: NA
Retention time: 0.200 min
Base peak: 341.11153
Precursor m/z: 341.11153
Precursor type: [M-H]-
Precursor intensity: 195
m/z	relative intensity
55.0168	119
59.026	147
71.0223	155
89.0359	283
101.0294	289
113.0324	347
119.0394	488
179.0579	711
341.1052	999
