Mass spectrum: 15(S)-Latanoprost; ESI-TOF; MS2; CE: 0.6458333;  [M+H]+
Name: 15(S)-Latanoprost
Class: NA
Formula: C26H40O5
Exact mass: 432.28757
SMILES: O[C@@H]1[C@H](C/C=C\CCCC(OC(C)C)=O)[C@@H](CC[C@H](O)CCC2=CC=CC=C2)[C@H](O)C1
InChI: InChI=1S/C26H40O5/c1-19(2)31-26(30)13-9-4-3-8-12-22-23(25(29)18-24(22)28)17-16-21(27)15-14-20-10-6-5-7-11-20/h3,5-8,10-11,19,21-25,27-29H,4,9,12-18H2,1-2H3/b8-3-/t21-,22-,23-,24+,25-/m1/s1
Instrument: waters xevo g2 TOF
Instrument type: ESI-TOF
Ms type: MS2
Ion mode: POSITIVE
Ionization: ESI
Collision energy: 0.6458333
Column name: Acquity CSHC18
Retention time: 4.419 min
Base peak: 433.29557
Precursor m/z: 433.29557
Precursor type: [M+H]+
m/z	relative intensity
79.0549	73
81.0703	110
91.0554	787
93.0713	179
97.0642	27
101.0601	20
105.0711	928
106.0739	62
107.0865	130
111.0446	26
113.0617	67
117.071	459
118.0753	53
119.0867	187
123.079	17
127.0757	16
128.0621	32
129.0707	320
131.0864	900
132.0896	97
133.1026	170
141.0711	241
143.0873	378
144.0899	37
145.1021	264
147.1174	225
149.099	34
153.0234	20
155.0852	68
157.1018	165
159.1181	99
161.1333	117
167.0879	144
168.0913	34
171.1168	614
172.1221	49
173.1293	69
177.1455	19
179.0834	33
183.1178	108
185.1336	81
187.1497	113
188.0928	16
189.1275	284
190.133	43
191.0832	12
195.1291	97
205.16	80
206.1606	8
207.1367	300
208.139	39
209.1339	384
210.1381	47
211.1491	31
215.1016	71
219.1168	48
223.1491	114
224.1522	15
225.1266	54
227.0552	13
233.1183	60
235.1459	296
236.1376	50
237.1273	29
249.121	46
253.1561	25
258.0714	10
259.1138	13
277.196	29
301.1678	136
317.0792	11
319.2057	549
320.2079	77
329.1057	17
333.0929	33
337.2161	946
338.2203	224
339.2175	23
355.2269	207
356.2295	54
379.2637	316
380.2642	72
391.1408	59
393.1745	437
394.1795	111
397.2728	310
398.2762	68
409.1475	179
411.1849	451
412.1859	128
413.2306	999
414.1836	203
415.2417	21
416.2919	5
427.1588	247
428.1611	60
429.1963	756
430.1976	182
433.2376	15
