Mass spectrum: chrysin; LC-ESI-ITFT; MS2; CE: 0.3;  [M+H]+
Name: chrysin
Class: flavones
Formula: C15H10O4
Exact mass: 254.0579
SMILES: C1=CC=C(C=C1)C2=CC(=O)C3=C(C=C(C=C3O2)O)O
InChI: InChI=1S/C15H10O4/c16-10-6-11(17)15-12(18)8-13(19-14(15)7-10)9-4-2-1-3-5-9/h1-8,16-17H
Instrument: LTQ-Orbitrap XL hybrid mass spectrometer (Thermo Scientific)
Instrument type: LC-ESI-ITFT
Ms type: MS2
Ion mode: POSITIVE
Ionization: ESI
Collision energy: 0.3
Column name: Acquity CSHC18
Retention time: 11.095 min
Base peak: 255.0654
Precursor m/z: 255.0654
Precursor type: [M+H]+
Precursor intensity: 16432630
m/z	relative intensity
63.8329	3
64.2002	3
70.3918	3
71.7987	5
81.0332	3
86.1811	3
90.515	2
102.5865	3
102.6727	3
109.4548	3
126.9633	2
153.0186	20
166.9958	19
172.2269	3
187.0741	5
189.021	3
190.1223	2
197.5229	5
203.3168	2
213.0562	8
254.9621	3
254.9756	4
254.9994	4
255.012	5
255.0658	999
255.112	4
255.1238	3
255.1751	3
255.1825	3
