Mass spectrum: Laudanine; ESI-QTOF; MS2; CE: 1, 35, 60;  [M+H]+
Name: Laudanine
Class: Benzylisoquinoline alkaloid
Formula: C20H25NO4
Exact mass: 343.1784
SMILES: CN1CCC2=CC(=C(C=C2C1CC3=CC(=C(C=C3)OC)O)OC)OC
InChI: InChI=1S/C20H25NO4/c1-21-8-7-14-11-19(24-3)20(25-4)12-15(14)16(21)9-13-5-6-18(23-2)17(22)10-13/h5-6,10-12,16,22H,7-9H2,1-4H3
Instrument: AB Sciex TripleToF 5500
Instrument type: ESI-QTOF
Ms type: MS2
Ion mode: POSITIVE
Ionization: ESI
Collision energy: 1, 35, 60
Column name: Acquity CSHC18
Retention time: 5.054 min
Base peak: 344.1817
Precursor m/z: 344.1817
Precursor type: [M+H]+
Precursor intensity: 2333841
m/z	relative intensity
91.0497	16
118.0471	18
131.0572	18
137.053	28
144.0653	28
155.0654	29
159.0567	32
160.0571	35
161.066	39
162.0735	42
163.0599	47
165.0806	66
173.0799	73
174.0675	74
175.0822	76
180.073	77
188.0864	85
189.0848	100
194.0692	107
206.0941	112
207.1015	156
221.0733	164
225.0667	190
238.0906	216
239.0828	294
241.1062	609
251.0803	671
283.1101	999
