Mass spectrum: N-ACETYLSEROTONIN; LC-ESI-QTOF; MS2; CE: 40;  [M+H]+
Name: N-ACETYLSEROTONIN
Class: NA
Formula: C12H14N2O2
Exact mass: 218.10553
SMILES: CC(=O)NCCC1=CNC2=C1C=C(O)C=C2
InChI: InChI=1S/C12H14N2O2/c1-8(15)13-5-4-9-7-14-12-3-2-10(16)6-11(9)12/h2-3,6-7,14,16H,4-5H2,1H3,(H,13,15)
Instrument: Agilent 6530Â Q-TOF LC/MS
Instrument type: LC-ESI-QTOF
Ms type: MS2
Ion mode: POSITIVE
Ionization: ESI
Collision energy: 40
Column name: NA
Retention time: 0.200 min
Base peak: 219.11354
Precursor m/z: 219.11354
Precursor type: [M+H]+
Precursor intensity: 18.5
m/z	relative intensity
41.0357	25
42.0385	26
43.0327	26
44.0424	26
50.0153	27
51.0378	27
53.0408	28
54.043	28
55.0292	29
60.038	29
62.0146	29
63.0365	30
64.0254	30
65.0614	30
66.0448	30
67.069	30
75.0319	31
76.0331	31
77.071	31
77.2573	31
78.0553	32
79.0814	33
80.0553	33
81.0351	33
82.0287	34
86.0635	34
89.0693	34
90.0673	35
91.0846	41
92.0501	42
93.0615	42
94.0621	43
101.0346	61
102.0481	65
103.0841	66
103.3724	67
104.0786	69
105.1321	73
105.3895	77
105.6485	78
106.0672	81
107.073	87
113.0396	93
114.0503	98
115.4378	112
116.0679	117
116.4246	118
117.3145	118
117.7674	125
118.0664	127
118.403	134
119.0524	145
120.0613	152
122.0571	158
128.0653	176
129.066	180
130.1033	183
130.2897	185
131.0923	204
131.5159	218
131.6759	239
132.2491	322
133.1697	329
134.0684	349
140.07	363
141.0791	397
142.0986	438
142.3652	439
143.0978	492
144.0661	505
145.0687	513
146.0644	549
147.0566	591
148.0696	683
158.0876	693
159.1666	697
159.4561	710
160.1189	711
160.3039	718
160.5217	748
160.7323	782
167.064	999
183.0637	25
184.0692	26
