Mass spectrum: Cysteic acid; LC-ESI-ITFT; MS2; CE: 30;  [M+H]+
Name: Cysteic acid
Class: Organic acids and derivatives; Carboxylic acids and derivatives; Amino acids, peptides, and analogues
Formula: C3H7NO5S
Exact mass: 169.00449
SMILES: NC(CS(O)(=O)=O)C(O)=O
InChI: InChI=1S/C3H7NO5S/c4-2(3(5)6)1-10(7,8)9/h2H,1,4H2,(H,5,6)(H,7,8,9)
Instrument: Thermo Scientific Q-Exactive Focus
Instrument type: LC-ESI-ITFT
Ms type: MS2
Ion mode: POSITIVE
Ionization: ESI
Collision energy: 30
Column name: Acquity CSHC18
Retention time: 0.914 min
Base peak: 170.01176
Precursor m/z: 170.01176
Precursor type: [M+H]+
m/z	relative intensity
55.935	28
58.0292	21
60.0449	19
79.3072	10
90.9649	10
93.0576	14
105.2317	10
105.9959	999
124.0063	272
127.0267	10
