Mass spectrum: 3-Glc-Glc-28-Glc-Medicagenic acid; ESI-QTOF; MS2; CE: 30 eV;  [M-H]-
Name: 3-Glc-Glc-28-Glc-Medicagenic acid
Class: Saponin
Formula: C48H76O21
Exact mass: 988.4879
SMILES: CC1(C)CCC2(CCC3(C)C(=CCC4(C5(C)CC(C(C(C)(C5(CCC43C)[H])C(=O)O)(OC6(C(C(C(C(CO)(O6)[H])(O)[H])(O)[H])(OC7(C(C(C(C(CO)(O7)[H])(O)[H])(O)[H])(O)[H])[H])[H])[H])[H])(O)[H])[H])C2(C1)[H])C(=O)OC8(C(C(C(C(CO)(O8)[H])(O)[H])(O)[H])(O)[H])[H]
InChI: InChI=1S/C48H76O21/c1-43(2)11-13-48(42(63)69-39-35(60)32(57)29(54)24(18-50)65-39)14-12-45(4)20(21(48)15-43)7-8-26-44(3)16-22(52)37(47(6,41(61)62)27(44)9-10-46(26,45)5)68-40-36(33(58)30(55)25(19-51)66-40)67-38-34(59)31(56)28(53)23(17-49)64-38/h7,21-40,49-60H,8-19H2,1-6H3,(H,61,62)
Instrument: Synapt (HDMS 1st gen)
Instrument type: ESI-QTOF
Ms type: MS2
Ion mode: NEGATIVE
Ionization: ESI
Collision energy: 30 eV
Column name: Acquity CSHC18
Retention time: 17.345 min
Base peak: 987.4770
Precursor m/z: 987.4770
Precursor type: [M-H]-
Precursor intensity: 1991.31
m/z	relative intensity
825.4291	15
987.4774	999
