Mass spectrum: Tagitinin E, 15-hydroxy; LC-ESI-ITFT; MS2; CE: 50eV;  [M+H]+
Name: Tagitinin E, 15-hydroxy
Class: Sesquiterpenelactone; Heliangolide
Formula: C19H26O7
Exact mass: 366.1679
SMILES: CC(C)C(=O)O[C@@H]2C[C@@]3(C)O[C@@H]3C[C@H](O)C(CO)=C[C@@H]1OC(=O)C(=C)[C@@H]12
InChI: InChI=1S/C19H26O7/c1-9(2)17(22)25-14-7-19(4)15(26-19)6-12(21)11(8-20)5-13-16(14)10(3)18(23)24-13/h5,9,12-16,20-21H,3,6-8H2,1-2,4H3/t12-,13-,14+,15+,16-,19+/m0/s1
Instrument: Q Exactive Plus, ThermoFisher Scientific
Instrument type: LC-ESI-ITFT
Ms type: MS2
Ion mode: POSITIVE
Ionization: ESI
Collision energy: 50eV
Column name: Acquity CSHC18
Retention time: 4.777 min
Base peak: 367.1753
Precursor m/z: 367.1753
Precursor type: [M+H]+
Precursor intensity: 993057300
m/z	relative intensity
54.1923	47
67.17	40
67.5997	40
68.7826	238
71.3017	36
89.604	41
91.9064	48
95.0494	284
97.0651	163
106.9867	40
111.0438	53
117.0695	184
119.0488	47
123.0446	43
133.0651	52
137.0603	69
145.0649	219
147.0436	51
147.0809	60
149.0598	56
161.06	46
163.0755	73
165.0547	100
169.1018	146
171.0794	260
171.1155	210
172.9021	40
173.0963	55
181.0497	60
187.1128	94
197.0961	561
199.1114	229
201.0899	62
213.0906	56
215.1083	379
217.0842	339
225.0899	547
231.1007	49
243.1009	999
261.1131	306
271.4881	39
281.2293	40
289.009	40
297.1357	164
358.7391	44
367.1724	68
367.2125	72
