Mass spectrum: ent-Prostaglandin E2; ESI-TOF; MS2; CE: 6.0000000;  [M+H]+
Name: ent-Prostaglandin E2
Class: NA
Formula: C20H32O5
Exact mass: 352.22497
SMILES: O=C1[C@@H](C/C=C\CCCC(O)=O)[C@H](/C=C/[C@H](O)CCCCC)[C@@H](O)C1
InChI: InChI=1S/C20H32O5/c1-2-3-6-9-15(21)12-13-17-16(18(22)14-19(17)23)10-7-4-5-8-11-20(24)25/h4,7,12-13,15-17,19,21,23H,2-3,5-6,8-11,14H2,1H3,(H,24,25)/b7-4-,13-12+/t15-,16+,17+,19+/m1/s1
Instrument: waters xevo g2 TOF
Instrument type: ESI-TOF
Ms type: MS2
Ion mode: POSITIVE
Ionization: ESI
Collision energy: 6.0000000
Column name: Acquity CSHC18
Retention time: 3.581 min
Base peak: 353.23297
Precursor m/z: 353.23297
Precursor type: [M+H]+
m/z	relative intensity
123.0797	3
131.9579	3
151.1126	18
161.1314	4
175.1108	4
183.0806	2
187.1488	9
189.1244	29
195.1092	11
201.1266	36
202.1326	5
203.1038	15
207.1031	37
211.1137	3
215.1427	55
219.0993	6
229.1968	32
233.1546	25
245.1891	60
246.1961	6
253.1955	16
255.1745	21
257.1908	46
263.1988	90
264.2103	9
266.2174	9
271.2066	82
272.2125	11
273.1858	57
281.1898	154
299.2001	805
300.2045	201
317.2115	999
318.2107	216
331.2268	14
335.2216	426
336.2257	83
349.2339	9
354.195	201
354.6968	49
355.1976	16
