Mass spectrum: Aldosterone; LC-ESI-QTOF; MS2; CE: 40;  [M+H]+
Name: Aldosterone
Class: NA
Formula: C21H28O5
Exact mass: 360.1937
SMILES: C[C@]12CCC(=O)C=C1CC[C@@H]3[C@@H]2[C@H](C[C@]4([C@H]3CC[C@@H]4C(=O)CO)C=O)O
InChI: InChI=1S/C21H28O5/c1-20-7-6-13(24)8-12(20)2-3-14-15-4-5-16(18(26)10-22)21(15,11-23)9-17(25)19(14)20/h8,11,14-17,19,22,25H,2-7,9-10H2,1H3/t14-,15-,16+,17-,19+,20-,21+/m0/s1
Instrument: Agilent 6560Â Ion Mobility Q-TOF LC/MS
Instrument type: LC-ESI-QTOF
Ms type: MS2
Ion mode: POSITIVE
Ionization: ESI
Collision energy: 40
Column name: Acquity CSHC18
Retention time: 0.200 min
Base peak: 361.2013
Precursor m/z: 361.2013
Precursor type: [M+H]+
Precursor intensity: 47.5
m/z	relative intensity
77.0384	244
83.0519	256
91.0574	270
93.0719	275
95.0846	288
97.0676	290
98.9741	292
105.0721	306
107.0841	308
109.068	318
115.0543	319
117.0727	324
121.0686	328
127.0558	331
128.0647	342
129.0718	343
131.0897	352
141.0733	352
142.0742	364
143.0911	375
145.0949	376
147.0812	387
155.0896	390
158.0734	392
159.1153	397
161.0989	417
163.1148	428
168.0934	441
171.0878	475
178.0801	479
180.0897	509
182.1128	515
183.118	522
192.0969	531
193.1027	552
195.1036	573
196.1237	589
199.1118	607
207.112	655
213.1255	874
223.1264	878
225.1316	997
226.1315	999
251.1459	244
285.1827	256
