Mass spectrum: caftaric acid; LC-ESI-QFT; MS2; CE: NCE_15_30_42;  [M-H]-
Name: caftaric acid
Class: NA
Formula: C13H12O9
Exact mass: 312.0481
SMILES: C1=CC(=C(C=C1C=CC(=O)OC(C(C(=O)O)O)C(=O)O)O)O
InChI: InChI=1S/C13H12O9/c14-7-3-1-6(5-8(7)15)2-4-9(16)22-11(13(20)21)10(17)12(18)19/h1-5,10-11,14-15,17H,(H,18,19)(H,20,21)
Instrument: Thermo_Qexactive_Plus
Instrument type: LC-ESI-QFT
Ms type: MS2
Ion mode: NEGATIVE
Ionization: ESI
Collision energy: NCE_15_30_42
Column name: Acquity CSHC18
Retention time: 2.320 min
Base peak: 311.0409
Precursor m/z: 311.0409
Precursor type: [M-H]-
Precursor intensity: 165654200
m/z	relative intensity
51.5475	79
57.8562	79
58.6128	81
70.7369	81
87.0076	83
107.2004	86
135.0437	88
149.0083	116
152.9342	120
179.0384	290
249.8924	334
262.0544	596
311.167	999
