Mass spectrum: STACHYOSE; LC-ESI-QFT; MS2; CE: 30eV;  [M-H]-
Name: STACHYOSE
Class: NA
Formula: C24H42O21
Exact mass: 666.22186
SMILES: OC[C@H]1O[C@@](CO)(O[C@H]2O[C@H](CO[C@H]3O[C@H](CO[C@H]4O[C@H](CO)[C@H](O)[C@H](O)[C@H]4O)[C@H](O)[C@H](O)[C@H]3O)[C@@H](O)[C@H](O)[C@H]2O)[C@@H](O)[C@@H]1O
InChI: InChI=1S/C24H42O21/c25-1-6-10(28)14(32)17(35)21(41-6)39-3-8-11(29)15(33)18(36)22(42-8)40-4-9-12(30)16(34)19(37)23(43-9)45-24(5-27)20(38)13(31)7(2-26)44-24/h6-23,25-38H,1-5H2/t6-,7-,8-,9-,10+,11+,12-,13-,14+,15+,16+,17-,18-,19-,20+,21+,22+,23-,24+/m1/s1
Instrument: Q-Exactive Orbitrap, Thermo Scientfic; Ultimate 3000 HPLC, Thermo Scientfic
Instrument type: LC-ESI-QFT
Ms type: MS2
Ion mode: NEGATIVE
Ionization: ESI
Collision energy: 30eV
Column name: Acquity CSHC18
Retention time: 0.626 min
Base peak: 665.2146
Precursor m/z: 665.2146
Precursor type: [M-H]-
Precursor intensity: 156
m/z	relative intensity
59.0123	187
71.0122	196
73.0278	24
79.4291	11
82.6579	12
83.8861	15
87.0071	171
87.188	10
89.0228	459
97.0279	18
101.0227	358
113.0228	143
119.0332	121
125.0229	63
131.0334	25
143.0334	239
143.5306	16
144.7785	13
149.0442	16
161.0441	157
179.0549	676
203.0551	31
221.0658	147
277.908	14
317.9971	13
323.0988	29
341.1098	60
383.1192	999
384.1228	110
397.0624	14
397.9635	16
425.1301	29
449.7929	13
