Mass spectrum: CIS-4-HYDROXY-D-PROLINE; LC-ESI-QTOF; MS2; CE: 20;  [M+H]+
Name: CIS-4-HYDROXY-D-PROLINE
Class: NA
Formula: C5H9NO3
Exact mass: 131.05824
SMILES: O[C@H]1CN[C@H](C1)C(O)=O
InChI: InChI=1S/C5H9NO3/c7-3-1-4(5(8)9)6-2-3/h3-4,6-7H,1-2H2,(H,8,9)/t3-,4-/m1/s1
Instrument: Agilent 6530Â Q-TOF LC/MS
Instrument type: LC-ESI-QTOF
Ms type: MS2
Ion mode: POSITIVE
Ionization: ESI
Collision energy: 20
Column name: NA
Retention time: 0.200 min
Base peak: 132.06223
Precursor m/z: 132.06223
Precursor type: [M+H]+
Precursor intensity: 149.5
m/z	relative intensity
41.0764	29
42.0424	30
43.0423	31
58.0937	32
58.3289	33
62.9389	37
67.0552	38
68.2588	38
68.6698	39
69.0336	51
86.348	70
86.9459	171
87.0562	648
91.052	863
103.9504	918
132.0755	999
