Mass spectrum: GDP-L-fucose; LC-ESI-QTOF; MS2; CE: 100;  [M+H]+
Name: GDP-L-fucose
Class: Purine nucleotide sugars
Formula: C16H25N5O15P2
Exact mass: 589.08224
SMILES: C[C@@H]1OC(OP(O)(=O)OP(O)(=O)OC[C@H]2O[C@H]([C@H](O)[C@@H]2O)N2C=NC3=C2N=C(N)NC3=O)[C@@H](O)[C@H](O)[C@@H]1O
InChI: InChI=1S/C16H25N5O15P2/c1-4-7(22)9(24)11(26)15(33-4)35-38(30,31)36-37(28,29)32-2-5-8(23)10(25)14(34-5)21-3-18-6-12(21)19-16(17)20-13(6)27/h3-5,7-11,14-15,22-26H,2H2,1H3,(H,28,29)(H,30,31)(H3,17,19,20,27)/t4-,5+,7+,8+,9+,10+,11-,14+,15?/m0/s1
Instrument: impact II
Instrument type: LC-ESI-QTOF
Ms type: MS2
Ion mode: POSITIVE
Ionization: ESI
Collision energy: 100
Column name: Acquity CSHC18
Retention time: 1.859 min
Base peak: 590.08910
Precursor m/z: 590.08910
Precursor type: [M+H]+
m/z	relative intensity
110.0349	338
135.03	975
152.0564	999
153.0406	319
