Mass spectrum: Ribitol; LC-ESI-ITFT; MS2; CE: 100;  [M-H]-
Name: Ribitol
Class: Organic oxygen compounds; Organooxygen compounds; Carbohydrates and carbohydrate conjugates
Formula: C5H12O5
Exact mass: 152.06847
SMILES: OC[C@H](O)[C@H](O)[C@H](O)CO
InChI: InChI=1S/C5H12O5/c6-1-3(8)5(10)4(9)2-7/h3-10H,1-2H2/t3-,4+,5-
Instrument: Thermo Scientific Q-Exactive Focus
Instrument type: LC-ESI-ITFT
Ms type: MS2
Ion mode: NEGATIVE
Ionization: ESI
Collision energy: 100
Column name: Acquity CSHC18
Retention time: 2.581 min
Base peak: 151.06120
Precursor m/z: 151.06120
Precursor type: [M-H]-
m/z	relative intensity
67.4827	828
73.198	794
74.6525	999
81.5696	913
95.2206	856
103.068	875
150.1822	859
160.3055	915
166.8094	876
167.4622	904
