Mass spectrum: 2-amino-3-(4-hydroxy-3-methoxyphenyl)propanoic acid; LC-ESI-QTOF; MS2; CE: -10, -35, -60V;  [M-H]-
Name: 2-amino-3-(4-hydroxy-3-methoxyphenyl)propanoic acid
Class: NA
Formula: C10H13NO4
Exact mass: 211.0845
SMILES: COC1=C(C=CC(=C1)CC(C(=O)O)N)O
InChI: InChI=1S/C10H13NO4/c1-15-9-5-6(2-3-8(9)12)4-7(11)10(13)14/h2-3,5,7,12H,4,11H2,1H3,(H,13,14)
Instrument: TripleToF 5600; Sciex
Instrument type: LC-ESI-QTOF
Ms type: MS2
Ion mode: NEGATIVE
Ionization: ESI
Collision energy: -10, -35, -60V
Column name: Acquity CSHC18
Retention time: 0.770 min
Base peak: 210.0787
Precursor m/z: 210.0787
Precursor type: [M-H]-
Precursor intensity: 205283.3
m/z	relative intensity
72.0106	27
89.0393	12
117.0344	10
123.044	17
134.0348	61
134.043	63
135.0467	171
136.0509	20
148.0369	5
150.0532	67
151.063	30
166.0466	4
192.0661	20
193.0514	178
194.0569	23
195.0571	3
202.1448	19
205.0634	5
209.404	8
210.0622	984
210.0786	999
