Mass spectrum: D-erythro-sphingosine (C20 base); ESI-TOF; MS2; CE: 0.6458333;  [M+H]+
Name: D-erythro-sphingosine (C20 base)
Class: NA
Formula: C20H41NO2
Exact mass: 327.31373
SMILES: [H]OC([H])([H])C([H])(N([H])[H])C([H])(O[H])C([H])=C([H])C([H])([H])C([H])([H])C([H])([H])C([H])([H])C([H])([H])C([H])([H])C([H])([H])C([H])([H])C([H])([H])C([H])([H])C([H])([H])C([H])([H])C([H])([H])C([H])([H])C([H])([H])[H]
InChI: InChI=1S/C20H41NO2/c1-2-3-4-5-6-7-8-9-10-11-12-13-14-15-16-17-20(23)19(21)18-22/h16-17,19-20,22-23H,2-15,18,21H2,1H3
Instrument: waters xevo g2 TOF
Instrument type: ESI-TOF
Ms type: MS2
Ion mode: POSITIVE
Ionization: ESI
Collision energy: 0.6458333
Column name: Acquity CSHC18
Retention time: 4.542 min
Base peak: 328.32173
Precursor m/z: 328.32173
Precursor type: [M+H]+
m/z	relative intensity
55.0558	3
56.051	6
57.0713	8
60.0461	4
67.0555	66
68.051	2
69.0707	76
70.067	12
71.0865	26
72.0453	6
74.0614	9
77.0397	2
79.0552	70
81.0709	155
82.0666	72
83.0865	116
85.1018	21
86.061	41
91.0551	7
93.0708	110
94.0733	9
95.0863	187
96.087	59
97.1018	99
98.1036	9
100.0763	19
107.0862	71
108.0887	5
109.1018	84
110.0991	16
111.1175	23
114.092	5
121.1019	81
122.1047	8
123.1175	28
124.1153	7
125.1161	1
135.1174	50
136.1214	2
137.1328	8
138.1288	3
149.1329	14
163.1485	3
198.2229	2
212.238	11
226.2537	5
238.2525	3
239.2382	10
240.2673	2
264.2686	5
266.284	5
275.2739	4
280.3006	456
281.304	102
282.3092	17
290.2851	23
291.2867	5
292.3006	419
293.2942	117
305.2154	6
310.4131	999
311.3145	475
312.3172	56
313.321	4
