Mass spectrum: (3S,5S,8R,9S,10S,13S,14S,16R,17R)-10,13-dimethyl-17-((S)-1-((2S,5S)-5-methyl-1-nitrosopiperidin-2-yl)ethyl)hexadecahydro-1H-cyclopenta[a]phenanthrene-3,16-diol; APCI-ITFT; MS2; CE: CID 35;  [M-H]-
Name: (3S,5S,8R,9S,10S,13S,14S,16R,17R)-10,13-dimethyl-17-((S)-1-((2S,5S)-5-methyl-1-nitrosopiperidin-2-yl)ethyl)hexadecahydro-1H-cyclopenta[a]phenanthrene-3,16-diol
Class: NA
Formula: C27H46N2O3
Exact mass: 446.35084
SMILES: C[C@@]12[C@](CC[C@]3([H])[C@@]([H])2CC[C@@]4(C)[C@@]3([H])C[C@@H](O)[C@]4([H])[C@H](C)[C@@H]5CC[C@H](C)CN5N=O)([H])C[C@@H](O)CC1
InChI: InChI=1S/C27H46N2O3/c1-16-5-8-23(29(15-16)28-32)17(2)25-24(31)14-22-20-7-6-18-13-19(30)9-11-26(18,3)21(20)10-12-27(22,25)4/h16-25,30-31H,5-15H2,1-4H3/t16-,17+,18-,19-,20+,21-,22-,23-,24+,25-,26-,27-/m0/s1
Instrument: Orbitrap Elite
Instrument type: APCI-ITFT
Ms type: MS2
Ion mode: NEGATIVE
Ionization: APCI
Collision energy: CID 35
Column name: Acquity CSHC18
Retention time: 0.134 min
Base peak: 445.34330
Precursor m/z: 445.34330
Precursor type: [M-H]-
Precursor intensity: 120942.8
m/z	relative intensity
123.0622	7
131.8448	7
161.7018	7
237.8014	8
259.2585	7
264.0891	7
315.2329	12
355.0518	7
370.2311	7
379.2982	9
381.2776	19
382.5291	7
383.2938	178
385.3092	16
399.3273	436
400.9563	8
409.3213	75
425.3163	33
427.3305	999
