Mass spectrum: N-ACETYLGALACTOSAMINE; LC-ESI-QFT; MS2; CE: 30eV;  [M-H]-
Name: N-ACETYLGALACTOSAMINE
Class: NA
Formula: C8H15NO6
Exact mass: 221.08994
SMILES: CC(=O)N[C@H]1[C@H](O)O[C@H](CO)[C@H](O)[C@@H]1O
InChI: InChI=1S/C8H15NO6/c1-3(11)9-5-7(13)6(12)4(2-10)15-8(5)14/h4-8,10,12-14H,2H2,1H3,(H,9,11)/t4-,5-,6+,7-,8-/m1/s1
Instrument: Q-Exactive Orbitrap, Thermo Scientfic; Ultimate 3000 HPLC, Thermo Scientfic
Instrument type: LC-ESI-QFT
Ms type: MS2
Ion mode: NEGATIVE
Ionization: ESI
Collision energy: 30eV
Column name: Acquity CSHC18
Retention time: 0.582 min
Base peak: 220.0827
Precursor m/z: 220.0827
Precursor type: [M-H]-
Precursor intensity: 186
m/z	relative intensity
50.676	3
51.0169	4
51.3232	4
54.5068	4
54.8841	3
58.0283	26
59.0123	999
60.0156	9
61.9869	4
62.681	4
63.7241	4
68.363	4
71.0122	94
78.9134	4
80.0721	4
81.6076	3
82.0282	7
82.3826	4
83.0123	26
89.0228	127
89.0252	6
98.447	4
100.0388	344
101.0228	118
101.0424	6
107.9502	4
108.3615	5
112.0133	5
113.4184	5
114.9475	6
119.0336	22
120.7662	4
129.8657	84
129.9584	9
148.9536	10
157.9902	21
176.8588	6
184.8779	7
186.6984	5
219.8446	126
220.8447	5
222.6172	4
234.2489	5
