Mass spectrum: 13-OxoODE; LC-ESI-QTOF; MS2; CE: 20-40eV;  [M+H]+
Name: 13-OxoODE
Class: Fatty acid
Formula: C18H30O3
Exact mass: 294.2195
SMILES: CCCCCC(C(=C(C(=C(CCCCCCCC(=O)O)[H])[H])[H])[H])=O
InChI: InChI=1S/C18H30O3/c1-2-3-11-14-17(19)15-12-9-7-5-4-6-8-10-13-16-18(20)21/h7,9,12,15H,2-6,8,10-11,13-14,16H2,1H3,(H,20,21)
Instrument: Impact II, Bruker; Dionex 3000, Thermo Scientific
Instrument type: LC-ESI-QTOF
Ms type: MS2
Ion mode: POSITIVE
Ionization: ESI
Collision energy: 20-40eV
Column name: Acquity CSHC18
Retention time: 20.994 min
Base peak: 295.2260
Precursor m/z: 295.2260
Precursor type: [M+H]+
Precursor intensity: 5256.88
m/z	relative intensity
95.0854	267
97.0642	436
97.1001	163
99.0797	581
107.087	96
109.0987	299
121.1001	213
127.1093	77
147.1146	102
149.1318	115
151.1119	130
152.1143	112
179.1433	999
185.1303	157
193.1255	126
194.923	84
209.0748	77
221.1528	103
235.1687	106
277.2171	452
278.2174	109
