Mass spectrum: CYTIDINE 2',3'-CYCLIC PHOSPHATE; LC-ESI-QFT; MS2; CE: 30eV;  [M+H]+
Name: CYTIDINE 2',3'-CYCLIC PHOSPHATE
Class: NA
Formula: C9H12N3O7P
Exact mass: 305.04129
SMILES: NC1=NC(=O)N(C=C1)C1O[C@H](CO)[C@H]2OP(O)(=O)O[C@@H]12
InChI: InChI=1S/C9H12N3O7P/c10-5-1-2-12(9(14)11-5)8-7-6(4(3-13)17-8)18-20(15,16)19-7/h1-2,4,6-8,13H,3H2,(H,15,16)(H2,10,11,14)/t4-,6-,7-,8?/m1/s1
Instrument: Q-Exactive Orbitrap, Thermo Scientfic; Ultimate 3000 HPLC, Thermo Scientfic
Instrument type: LC-ESI-QFT
Ms type: MS2
Ion mode: POSITIVE
Ionization: ESI
Collision energy: 30eV
Column name: Acquity CSHC18
Retention time: 0.633 min
Base peak: 306.0486
Precursor m/z: 306.0486
Precursor type: [M+H]+
Precursor intensity: 161
m/z	relative intensity
52.4912	7
54.9762	6
56.894	6
57.6989	6
63.7231	6
68.2002	7
69.0343	74
69.0456	37
75.0647	7
81.0109	6
85.312	7
87.5217	7
92.226	6
94.0407	9
95.0246	64
97.0292	29
98.9849	190
110.188	7
113.0484	81
113.0545	330
135.0559	14
162.0666	42
178.0616	999
178.2455	8
179.0651	38
190.0616	32
208.0721	42
208.8837	29
213.0163	63
226.083	12
226.8938	68
236.878	42
250.8945	85
253.8806	12
254.8897	77
255.8819	18
264.8736	71
274.5766	8
282.8841	80
288.0385	10
306.0494	653
307.0523	48
328.0942	7
