Mass spectrum: Marmesin; LC-ESI-ITFT; MS2; CE: 45eV;  [M+H]+
Name: Marmesin
Class: coumarin
Formula: C14H14O4
Exact mass: 246.0892
SMILES: CC(C)(C1CC2=C(O1)C=C3C(=C2)C=CC(=O)O3)O
InChI: InChI=1S/C14H14O4/c1-14(2,16)12-6-9-5-8-3-4-13(15)18-10(8)7-11(9)17-12/h3-5,7,12,16H,6H2,1-2H3
Instrument: LTQ Orbitrap XL, Thermo Scientfic; Dionex Ultimate 300
Instrument type: LC-ESI-ITFT
Ms type: MS2
Ion mode: POSITIVE
Ionization: ESI
Collision energy: 45eV
Column name: Alltima C18
Retention time: 20.28 min
Base peak: 247.0947
Precursor m/z: 247.0947
Precursor type: [M+H]+
m/z	relative intensity
154.9016	1
166.9751	1
168.9768	2
174.9846	363
197.0668	1
201.0701	18
211.0096	22
219.0216	4
229.0274	999
247.0665	5
