Mass spectrum: DIHYDROXYACETONE PHOSPHATE; LC-ESI-QTOF; MS2; CE: -10, -35, -60V;  [M-H]-
Name: DIHYDROXYACETONE PHOSPHATE
Class: NA
Formula: C3H7O6P
Exact mass: 169.9980
SMILES: C(C(=O)COP(=O)(O)O)O
InChI: InChI=1S/C3H7O6P/c4-1-3(5)2-9-10(6,7)8/h4H,1-2H2,(H2,6,7,8)
Instrument: TripleToF 5600; Sciex
Instrument type: LC-ESI-QTOF
Ms type: MS2
Ion mode: NEGATIVE
Ionization: ESI
Collision energy: -10, -35, -60V
Column name: Acquity CSHC18
Retention time: 7.326 min
Base peak: 168.9922
Precursor m/z: 168.9922
Precursor type: [M-H]-
Precursor intensity: 84652.63
m/z	relative intensity
78.9589	999
96.9699	113
168.9898	15
