Mass spectrum: 3-Sulfinoalanine; LC-ESI-ITFT; MS2; CE: 30;  [M-H]-
Name: 3-Sulfinoalanine
Class: Organic acids and derivatives; Carboxylic acids and derivatives; Amino acids, peptides, and analogues
Formula: C3H7NO4S
Exact mass: 153.00958
SMILES: C([C@@H](C(=O)O)N)S(=O)=O
InChI: InChI=1S/C3H7NO4S/c4-2(3(5)6)1-9(7)8/h2,9H,1,4H2,(H,5,6)/t2-/m0/s1
Instrument: Thermo Scientific Q-Exactive Focus
Instrument type: LC-ESI-ITFT
Ms type: MS2
Ion mode: NEGATIVE
Ionization: ESI
Collision energy: 30
Column name: Acquity CSHC18
Retention time: 0.931 min
Base peak: 152.00230
Precursor m/z: 152.00230
Precursor type: [M-H]-
m/z	relative intensity
57.7625	17
63.9612	781
71.0126	23
88.0392	999
112.124	20
125.6705	17
125.7491	18
132.3037	19
135.018	17
173.3779	18
