Mass spectrum: O-SUCCINYL-HOMOSERINE; LC-ESI-QFT; MS2; CE: 30eV;  [M+H]+
Name: O-SUCCINYL-HOMOSERINE
Class: NA
Formula: C8H13NO6
Exact mass: 219.07429
SMILES: C(COC(=O)CCC(=O)O)C(C(=O)O)N
InChI: InChI=1S/C8H13NO6/c9-5(8(13)14)3-4-15-7(12)2-1-6(10)11/h5H,1-4,9H2,(H,10,11)(H,13,14)
Instrument: Q-Exactive Orbitrap, Thermo Scientfic; Ultimate 3000 HPLC, Thermo Scientfic
Instrument type: LC-ESI-QFT
Ms type: MS2
Ion mode: POSITIVE
Ionization: ESI
Collision energy: 30eV
Column name: Acquity CSHC18
Retention time: 0.683 min
Base peak: 220.0816
Precursor m/z: 220.0816
Precursor type: [M+H]+
Precursor intensity: 156
m/z	relative intensity
55.0186	19
56.0503	466
56.2843	2
57.0537	3
58.0512	1
60.9755	1
66.7852	2
67.6907	2
70.4719	2
70.5624	2
73.0291	36
74.0244	173
74.0608	999
75.0641	15
84.0451	99
85.0291	20
88.1659	2
101.0239	429
102.0273	5
103.0525	4
103.0588	50
119.0343	12
120.0659	885
121.0693	11
126.0552	29
138.0552	15
138.9817	2
144.066	2
144.7171	2
147.3061	2
156.0659	2
157.347	2
162.465	2
174.0762	15
184.0608	77
194.6098	2
202.0715	60
203.0553	3
203.075	3
219.175	3
220.0819	213
221.0852	5
238.2521	2
