Mass spectrum: D-Arabitol; ESI-TOF; MS2; CE: 6.0000000;  [M+H]+
Name: D-Arabitol
Class: NA
Formula: C5H12O5
Exact mass: 152.06847
SMILES: OCC(O)C(O)C(O)CO
InChI: InChI=1S/C5H12O5/c6-1-3(8)5(10)4(9)2-7/h3-10H,1-2H2
Instrument: waters xevo g2 TOF
Instrument type: ESI-TOF
Ms type: MS2
Ion mode: POSITIVE
Ionization: ESI
Collision energy: 6.0000000
Column name: Acquity CSHC18
Retention time: 0.560 min
Base peak: 153.07647
Precursor m/z: 153.07647
Precursor type: [M+H]+
m/z	relative intensity
69.0347	136
73.0293	37
87.0453	11
96.9618	210
97.9691	126
99.0444	673
100.0479	40
100.9445	1
113.964	493
116.5287	34
117.038	919
117.997	33
124.5157	20
126.0264	23
130.0081	22
131.951	71
135.0655	999
136.0688	55
137.9883	205
139.9852	30
141.008	69
141.971	4
146.0309	7
149.0181	71
150.0184	65
150.9958	15
153.0764	336
