Mass spectrum: L-Histidine; ESI-TOF; MS2; CE: 6.0000000;  [M+H]+
Name: L-Histidine
Class: NA
Formula: C6H9N3O2
Exact mass: 155.06948
SMILES: NC(CC1=CNC=N1)C(O)=O
InChI: InChI=1S/C6H9N3O2/c7-5(6(10)11)1-4-2-8-3-9-4/h2-3,5H,1,7H2,(H,8,9)(H,10,11)
Instrument: waters xevo g2 TOF
Instrument type: ESI-TOF
Ms type: MS2
Ion mode: POSITIVE
Ionization: ESI
Collision energy: 6.0000000
Column name: Acquity CSHC18
Retention time: 0.477 min
Base peak: 156.07748
Precursor m/z: 156.07748
Precursor type: [M+H]+
m/z	relative intensity
83.0613	7
93.0458	10
95.061	4
101.9411	4
110.0896	394
111.0748	91
112.0755	1
125.0722	1
130.0089	3
138.0145	31
139.0509	9
145.0184	3
156.1205	999
157.0805	177
158.0035	6
