Mass spectrum: herniarin; LC-ESI-ITFT; MS2; CE: 0.3;  [M+H]+
Name: herniarin
Class: coumarins
Formula: C10H8O3
Exact mass: 176.0473
SMILES: COC1=CC2=C(C=C1)C=CC(=O)O2
InChI: InChI=1S/C10H8O3/c1-12-8-4-2-7-3-5-10(11)13-9(7)6-8/h2-6H,1H3
Instrument: LTQ-Orbitrap XL hybrid mass spectrometer (Thermo Scientific)
Instrument type: LC-ESI-ITFT
Ms type: MS2
Ion mode: POSITIVE
Ionization: ESI
Collision energy: 0.3
Column name: Acquity CSHC18
Retention time: 8.336 min
Base peak: 177.0542
Precursor m/z: 177.0542
Precursor type: [M+H]+
Precursor intensity: 5650153
m/z	relative intensity
55.3364	1
67.7975	1
69.4455	2
71.7933	3
78.5717	2
86.2066	2
103.0542	3
110.2591	2
110.9989	2
118.0409	6
118.1723	2
121.0644	28
133.0644	211
149.0603	12
166.9721	12
176.9808	2
176.988	3
176.9951	3
177.0036	3
177.0104	4
177.0161	6
177.0296	7
177.0544	999
177.0804	5
177.0885	4
177.0944	6
177.1027	3
177.1085	4
177.1165	3
177.1228	3
177.1368	4
