Mass spectrum: Theophylline; LC-ESI-QTOF; MS2; CE: 15;  [M-H]-
Name: Theophylline
Class: NA
Formula: C7H8N4O2
Exact mass: 180.0647
SMILES: CN1C2=C(C(=O)N(C1=O)C)NC=N2
InChI: InChI=1S/C7H8N4O2/c1-10-5-4(8-3-9-5)6(12)11(2)7(10)13/h3H,1-2H3,(H,8,9)
Instrument: Bruker MicrOTOF-Q
Instrument type: LC-ESI-QTOF
Ms type: MS2
Ion mode: NEGATIVE
Ionization: ESI
Collision energy: 15
Column name: Acquity CSHC18
Retention time: NA
Base peak: 179.0574
Precursor m/z: 179.0574
Precursor type: [M-H]-
m/z	relative intensity
94.0386	13
109.0296	4
120.0202	13
121.028	11
122.0354	705
123.0377	35
135.0183	92
136.035	20
164.0331	999
165.0347	67
179.0562	577
180.0587	46
