Mass spectrum: Caftaric acid; LC-ESI-QTOF; MS2; CE: 7-62eV;  [M-H]-
Name: Caftaric acid
Class: Phenolics
Formula: C13H12O9
Exact mass: 312.0481
SMILES: C1=CC(=C(C=C1C=CC(=O)OC(C(C(=O)O)O)C(=O)O)O)O
InChI: InChI=1S/C13H12O9/c14-7-3-1-6(5-8(7)15)2-4-9(16)22-11(13(20)21)10(17)12(18)19/h1-5,10-11,14-15,17H,(H,18,19)(H,20,21)
Instrument: Bruker MicrOTOF-Q
Instrument type: LC-ESI-QTOF
Ms type: MS2
Ion mode: NEGATIVE
Ionization: ESI
Collision energy: 7-62eV
Column name: Acquity CSHC18
Retention time: 13.992 min
Base peak: 311.0357
Precursor m/z: 311.0357
Precursor type: [M-H]-
Precursor intensity: 1885.62
m/z	relative intensity
130.9961	37
134.0408	71
135.0488	106
136.0494	125
149.0137	173
150.0142	226
179.0423	670
180.0409	670
311.0469	999
