Mass spectrum: Proline; LC-ESI-ITFT; MS2; CE: 45eV;  [M+H]+
Name: Proline
Class: aminoacid
Formula: C5H9NO2
Exact mass: 115.0633
SMILES: C1CC(NC1)C(=O)O
InChI: InChI=1S/C5H9NO2/c7-5(8)4-2-1-3-6-4/h4,6H,1-3H2,(H,7,8)
Instrument: LTQ Orbitrap XL, Thermo Scientfic; Dionex Ultimate 300
Instrument type: LC-ESI-ITFT
Ms type: MS2
Ion mode: POSITIVE
Ionization: ESI
Collision energy: 45eV
Column name: Alltima C18
Retention time: 2.34 min
Base peak: 116.0702
Precursor m/z: 116.0702
Precursor type: [M+H]+
m/z	relative intensity
59.9723	356
82.9711	999
