Mass spectrum: 3-Sulfinoalanine; LC-ESI-ITFT; MS2; CE: 60;  [M+H]+
Name: 3-Sulfinoalanine
Class: Organic acids and derivatives; Carboxylic acids and derivatives; Amino acids, peptides, and analogues
Formula: C3H7NO4S
Exact mass: 153.00958
SMILES: C([C@@H](C(=O)O)N)S(=O)=O
InChI: InChI=1S/C3H7NO4S/c4-2(3(5)6)1-9(7)8/h2,9H,1,4H2,(H,5,6)/t2-/m0/s1
Instrument: Thermo Scientific Q-Exactive Focus
Instrument type: LC-ESI-ITFT
Ms type: MS2
Ion mode: POSITIVE
Ionization: ESI
Collision energy: 60
Column name: Acquity CSHC18
Retention time: 2.014 min
Base peak: 154.01685
Precursor m/z: 154.01685
Precursor type: [M+H]+
m/z	relative intensity
54.8384	91
55.0184	999
61.5716	95
64.8679	89
72.7714	95
86.0265	95
109.1953	91
126.1855	108
164.1044	108
164.7759	90
