Mass spectrum: SELENOMETHIONINE; LC-ESI-QFT; MS2; CE: 30eV;  [M+H]+
Name: SELENOMETHIONINE
Class: NA
Formula: C5H11NO2Se
Exact mass: 196.99550
SMILES: C[Se]CCC(N)C(O)=O
InChI: InChI=1S/C5H11NO2Se/c1-9-3-2-4(6)5(7)8/h4H,2-3,6H2,1H3,(H,7,8)
Instrument: Q-Exactive Orbitrap, Thermo Scientfic; Ultimate 3000 HPLC, Thermo Scientfic
Instrument type: LC-ESI-QFT
Ms type: MS2
Ion mode: POSITIVE
Ionization: ESI
Collision energy: 30eV
Column name: Acquity CSHC18
Retention time: 0.828 min
Base peak: 198.0028
Precursor m/z: 198.0028
Precursor type: [M+H]+
Precursor intensity: 160
m/z	relative intensity
50.0807	1
51.493	1
52.7108	1
54.1657	1
55.0168	1
55.6352	1
56.0503	492
57.0343	3
57.0536	9
58.5693	1
59.5105	1
60.5979	1
62.1369	1
66.1398	1
66.6665	1
67.5994	1
70.6862	1
74.0244	21
74.0608	54
79.1396	1
82.5466	1
84.045	11
85.0292	19
85.1351	1
87.9112	1
90.0467	1
92.9242	1
94.94	2
98.0401	1
101.2723	1
102.0555	241
103.0588	6
104.0598	1
106.9399	2
106.9564	2
108.0121	1
108.9556	256
115.178	1
122.9711	7
123.9509	11
132.9553	2
134.9711	113
141.3177	1
151.0014	2
151.9976	560
152.185	1
152.9451	9
152.9815	26
153.0011	3
162.9658	9
168.9596	1
169.9562	33
179.9807	9
180.9765	999
181.9798	14
197.9876	9
198.0033	103
198.2587	1
