Mass spectrum: FRUCTOSE 6-PHOSPHATE; LC-ESI-QFT; MS2; CE: 30eV;  [M-H]-
Name: FRUCTOSE 6-PHOSPHATE
Class: NA
Formula: C6H13O9P
Exact mass: 260.02972
SMILES: OCC(=O)[C@@H](O)[C@H](O)[C@H](O)COP(O)(O)=O
InChI: InChI=1S/C6H13O9P/c7-1-3(8)5(10)6(11)4(9)2-15-16(12,13)14/h4-7,9-11H,1-2H2,(H2,12,13,14)/t4-,5-,6-/m1/s1
Instrument: Q-Exactive Orbitrap, Thermo Scientfic; Ultimate 3000 HPLC, Thermo Scientfic
Instrument type: LC-ESI-QFT
Ms type: MS2
Ion mode: NEGATIVE
Ionization: ESI
Collision energy: 30eV
Column name: Acquity CSHC18
Retention time: 0.608 min
Base peak: 259.0224
Precursor m/z: 259.0224
Precursor type: [M-H]-
Precursor intensity: 151
m/z	relative intensity
52.8389	1
58.9574	1
63.1358	1
71.0122	2
73.0279	1
78.9575	268
90.9637	1
96.9681	999
97.028	1
101.0229	14
102.9472	27
102.9505	1
138.9788	88
140.7852	1
146.9373	41
150.9791	1
168.9895	24
189.8855	1
190.4922	1
196.9954	1
199.0002	2
208.6187	1
210.8731	1
221.8421	1
223.0008	4
223.4475	1
253.2158	1
259.0224	11
