Mass spectrum: Acetylcysteine; ESI-TOF; MS2; CE: 6.0000000;  [M+H]+
Name: Acetylcysteine
Class: NA
Formula: C5H9NO3S
Exact mass: 163.03031
SMILES: CC(=O)NC(CS)C(O)=O
InChI: InChI=1S/C5H9NO3S/c1-3(7)6-4(2-10)5(8)9/h4,10H,2H2,1H3,(H,6,7)(H,8,9)
Instrument: waters xevo g2 TOF
Instrument type: ESI-TOF
Ms type: MS2
Ion mode: POSITIVE
Ionization: ESI
Collision energy: 6.0000000
Column name: Acquity CSHC18
Retention time: 1.166 min
Base peak: 164.03831
Precursor m/z: 164.03831
Precursor type: [M+H]+
m/z	relative intensity
76.0229	101
96.9617	1
96.9618	1
105.0015	39
113.9647	2
122.0277	853
122.0278	999
124.0079	1
129.9403	1
129.9416	1
131.9635	1
137.9881	571
138.9896	1
142.0184	1
144.9658	1
146.0278	40
146.028	78
164.0381	169
172.9607	291
172.9767	217
173.9683	126
186.0198	329
186.0203	361
201.9875	1
213.9869	117
213.9875	80
217.957	29
217.958	32
219.9562	25
250.9377	55
250.9388	56
365.0147	58
379.9805	60
