Mass spectrum: GALACTOSAMINE; LC-ESI-QTOF; MS2; CE: 20;  [M+H]+
Name: GALACTOSAMINE
Class: NA
Formula: C6H13NO5
Exact mass: 179.07937
SMILES: N[C@H]1C(O)O[C@H](CO)[C@H](O)[C@@H]1O
InChI: InChI=1S/C6H13NO5/c7-3-5(10)4(9)2(1-8)12-6(3)11/h2-6,8-11H,1,7H2/t2-,3-,4+,5-,6?/m1/s1
Instrument: Agilent 6530Â Q-TOF LC/MS
Instrument type: LC-ESI-QTOF
Ms type: MS2
Ion mode: POSITIVE
Ionization: ESI
Collision energy: 20
Column name: NA
Retention time: 0.200 min
Base peak: 180.08522
Precursor m/z: 180.08522
Precursor type: [M+H]+
Precursor intensity: 141.5
m/z	relative intensity
41.0418	31
43.0352	32
44.0815	33
45.0355	34
53.0373	36
54.0353	36
55.0384	36
56.0549	38
57.044	49
58.0265	56
60.0543	67
61.0264	69
68.0567	69
69.0413	69
70.0603	69
72.0716	71
73.0382	74
80.0613	81
81.036	81
83.0058	82
84.056	84
85.0361	87
96.0664	99
97.035	99
98.0765	117
108.0549	122
114.0638	141
116.0649	152
126.0607	264
144.0676	687
162.0811	999
