Mass spectrum: Nicotianoside Ib; LC-ESI-QTOF; MS2; CE: 16.6eV;  [M+NH4]+
Name: Nicotianoside Ib
Class: Diterpene
Formula: C41H66O19
Exact mass: 862.4198
SMILES: O=C(O)CC(=O)OC[C@H]1O[C@@H](O[C@@](C)(CC\C=C(/C)CC\C=C(/C)CC\C=C(\C)CO[C@@H]2O[C@H](CO)[C@@H](O)[C@H](O)[C@H]2O)C=C)[C@H](O)[C@@H](O)[C@@H]1O[C@@H]1O[C@@H](C)[C@H](O)[C@@H](O)[C@H]1O
InChI: InChI=1S/C41H66O19/c1-7-41(6,16-10-15-22(3)12-8-11-21(2)13-9-14-23(4)19-55-38-34(51)32(49)30(47)25(18-42)57-38)60-40-36(53)33(50)37(26(58-40)20-54-28(45)17-27(43)44)59-39-35(52)31(48)29(46)24(5)56-39/h7,11,14-15,24-26,29-40,42,46-53H,1,8-10,12-13,16-20H2,2-6H3,(H,43,44)/b21-11+,22-15+,23-14-/t24-,25+,26+,29-,30+,31+,32-,33+,34+,35+,36+,37+,38+,39-,40-,41+/m0/s1
Instrument: Impact II qTOF
Instrument type: LC-ESI-QTOF
Ms type: MS2
Ion mode: POSITIVE
Ionization: ESI
Collision energy: 16.6eV
Column name: Acquity CSH C18 column (particle size 1.7 μm, column length 2.1 × 50 mm) (Waters)
Retention time: 21.3 min
Base peak: 880.4515
Precursor m/z: 880.4515
Precursor type: [M+NH4]+
m/z	relative intensity
109.1015	9
121.1012	9
145.05	15
147.0654	10
149.1325	16
161.1322	10
163.1485	12
175.1489	8
177.1638	13
189.1636	9
213.0396	8
215.1789	20
231.0497	27
249.0602	48
269.2267	10
271.2418	399
272.2454	89
273.2534	14
289.2527	36
309.1179	34
327.1277	11
359.0974	36
377.1072	21
395.1184	93
396.1224	16
399.2887	27
400.2925	8
411.1132	23
413.1288	14
417.3001	130
418.3037	39
435.3113	15
519.2944	16
537.3057	44
538.3085	14
557.1711	20
665.3538	16
683.3639	34
684.3675	14
880.4515	999
