Mass spectrum: 1-palmitoyl-2-glutaryl-sn-glycero-3-phosphocholine; ESI-TOF; MS2; CE: 0.6458333;  [M+H]+
Name: 1-palmitoyl-2-glutaryl-sn-glycero-3-phosphocholine
Class: NA
Formula: C29H56NO10P
Exact mass: 609.36418
SMILES: [H]OC(=O)C([H])([H])C([H])([H])C([H])([H])C(=O)OC([H])(C([H])([H])OC(=O)C([H])([H])C([H])([H])C([H])([H])C([H])([H])C([H])([H])C([H])([H])C([H])([H])C([H])([H])C([H])([H])C([H])([H])C([H])([H])C([H])([H])C([H])([H])C([H])([H])C([H])([H])[H])C([H])([H])OP(=O)([O-])OC([H])([H])C([H])([H])[N+](C([H])([H])[H])(C([H])([H])[H])C([H])([H])[H]
InChI: InChI=1S/C29H56NO10P/c1-5-6-7-8-9-10-11-12-13-14-15-16-17-20-28(33)37-24-26(40-29(34)21-18-19-27(31)32)25-39-41(35,36)38-23-22-30(2,3)4/h26H,5-25H2,1-4H3,(H-,31,32,35,36)
Instrument: waters xevo g2 TOF
Instrument type: ESI-TOF
Ms type: MS2
Ion mode: POSITIVE
Ionization: ESI
Collision energy: 0.6458333
Column name: Acquity CSHC18
Retention time: 7.365 min
Base peak: 610.37218
Precursor m/z: 610.37218
Precursor type: [M+H]+
m/z	relative intensity
86.0973	30
104.1079	20
111.5139	4
112.9917	25
120.5198	13
125.0006	9
129.5255	22
138.53	5
148.533	65
152.9865	10
154.5326	7
157.5385	18
162.9473	6
166.0632	3
168.5311	3
170.9968	6
177.5358	1
184.0741	999
185.0773	58
186.0786	8
240.0996	3
258.6426	6
267.6483	9
295.1945	12
419.2559	7
427.3055	10
431.1875	5
449.288	18
450.2901	10
475.215	4
478.3075	24
479.2658	4
482.738	15
483.2391	4
496.3393	3
534.288	52
535.2915	13
550.2556	3
573.2814	45
574.2832	23
575.2855	3
591.3046	1
594.3753	1
610.3732	333
611.3763	112
