Mass spectrum: UDP-glucose; LC-ESI-QTOF; MS2; CE: 10;  [M-H]-
Name: UDP-glucose
Class: NA
Formula: C15H24N2O17P2
Exact mass: 566.05502
SMILES: C1=CN(C(=O)NC1=O)C2C(C(C(O2)COP(=O)(O)OP(=O)(O)OC3C(C(C(C(O3)CO)O)O)O)O)O
InChI: InChI=1S/C15H24N2O17P2/c18-3-5-8(20)10(22)12(24)14(32-5)33-36(28,29)34-35(26,27)30-4-6-9(21)11(23)13(31-6)17-2-1-7(19)16-15(17)25/h1-2,5-6,8-14,18,20-24H,3-4H2,(H,26,27)(H,28,29)(H,16,19,25)
Instrument: impact II
Instrument type: LC-ESI-QTOF
Ms type: MS2
Ion mode: NEGATIVE
Ionization: ESI
Collision energy: 10
Column name: Acquity CSHC18
Retention time: 1.842 min
Base peak: 565.04800
Precursor m/z: 565.04800
Precursor type: [M-H]-
m/z	relative intensity
323.0282	295
565.0478	999
566.0507	251
