Mass spectrum: N-Acetyl-L-aspartic acid; LC-ESI-ITFT; MS2; CE: 30;  [M+H]+
Name: N-Acetyl-L-aspartic acid
Class: Organic acids and derivatives; Carboxylic acids and derivatives; Amino acids, peptides, and analogues
Formula: C6H9NO5
Exact mass: 175.04807
SMILES: CC(=O)N[C@@H](CC(O)=O)C(O)=O
InChI: InChI=1S/C6H9NO5/c1-3(8)7-4(6(11)12)2-5(9)10/h4H,2H2,1H3,(H,7,8)(H,9,10)(H,11,12)/t4-/m0/s1
Instrument: Thermo Scientific Q-Exactive Focus
Instrument type: LC-ESI-ITFT
Ms type: MS2
Ion mode: POSITIVE
Ionization: ESI
Collision energy: 30
Column name: Acquity CSHC18
Retention time: 0.913 min
Base peak: 176.05534
Precursor m/z: 176.05534
Precursor type: [M+H]+
m/z	relative intensity
53.0027	8
60.0449	37
70.0292	128
71.0132	13
74.024	999
88.0396	598
97.0078	7
98.0238	11
99.0079	67
160.6083	6
