Mass spectrum: GLYCOCHOLATE; LC-ESI-QTOF; MS2; CE: 10;  [M+H]+
Name: GLYCOCHOLATE
Class: NA
Formula: C26H43NO6
Exact mass: 465.30904
SMILES: C[C@H](CCC(O)=NCC(O)=O)[C@H]1CC[C@H]2[C@@H]3[C@H](O)C[C@@H]4C[C@H](O)CC[C@]4(C)[C@H]3C[C@H](O)[C@]12C
InChI: InChI=1S/C26H43NO6/c1-14(4-7-22(31)27-13-23(32)33)17-5-6-18-24-19(12-21(30)26(17,18)3)25(2)9-8-16(28)10-15(25)11-20(24)29/h14-21,24,28-30H,4-13H2,1-3H3,(H,27,31)(H,32,33)/t14-,15+,16-,17-,18+,19+,20-,21+,24+,25+,26-/m1/s1
Instrument: Agilent 6530Â Q-TOF LC/MS
Instrument type: LC-ESI-QTOF
Ms type: MS2
Ion mode: POSITIVE
Ionization: ESI
Collision energy: 10
Column name: NA
Retention time: 0.200 min
Base peak: 466.31364
Precursor m/z: 466.31364
Precursor type: [M+H]+
Precursor intensity: 168.5
m/z	relative intensity
55.0564	24
76.0525	25
81.0732	25
83.0878	26
85.0662	26
95.0869	26
105.0683	26
107.0929	27
109.1009	27
119.0828	27
121.0988	27
123.1127	27
133.1004	27
147.1181	28
149.1129	28
156.0931	28
157.0972	29
158.0972	30
159.1221	31
161.1237	31
163.1085	32
171.1243	33
173.1281	33
183.1282	33
185.1424	34
187.1363	34
189.1329	34
197.133	34
198.1119	35
199.1619	35
201.1606	35
202.1739	36
205.1551	36
209.1474	37
211.1663	38
213.1823	38
215.1533	39
223.1407	39
224.1221	39
225.17	39
226.1342	40
227.1826	40
229.1694	40
237.1766	41
239.1711	41
241.1784	42
249.1692	42
253.1839	43
255.1849	44
263.1748	44
264.1659	45
267.2066	45
269.1917	48
277.1911	52
293.232	56
295.2326	58
296.2083	60
309.2553	62
319.2777	66
320.2513	69
337.2973	73
338.2611	74
355.2767	83
358.259	85
370.2355	107
394.2728	110
412.3673	112
412.6266	132
412.9637	177
413.3487	207
430.3569	218
430.6245	264
430.8148	443
431.3026	559
448.351	999
449.2798	24
466.3608	25
467.2895	25
