Mass spectrum: Quinolinic acid; LC-ESI-ITFT; MS2; CE: 40;  [M-H]-
Name: Quinolinic acid
Class: Organoheterocyclic compounds; Pyridines and derivatives; Pyridinecarboxylic acids and derivatives
Formula: C7H5NO4
Exact mass: 167.02186
SMILES: OC(=O)C1=CC=CN=C1C(O)=O
InChI: InChI=1S/C7H5NO4/c9-6(10)4-2-1-3-8-5(4)7(11)12/h1-3H,(H,9,10)(H,11,12)
Instrument: Thermo Scientific Q-Exactive Focus
Instrument type: LC-ESI-ITFT
Ms type: MS2
Ion mode: NEGATIVE
Ionization: ESI
Collision energy: 40
Column name: Acquity CSHC18
Retention time: 1.475 min
Base peak: 166.01459
Precursor m/z: 166.01459
Precursor type: [M-H]-
m/z	relative intensity
78.0213	981
78.3797	862
87.8372	885
103.5418	870
109.3193	994
126.4458	999
130.9007	960
137.8716	882
138.0935	899
170.0448	941
