Mass spectrum: Trans-Geraniol; LC-ESI-QTOF; MS2; CE: 0.00;  [2M-2H2O+H]+
Name: Trans-Geraniol
Class: NA
Formula: C10H18O
Exact mass: 154.1358
SMILES: CC(=CCCC(=CCO)C)C
InChI: InChI=1S/C10H18O/c1-9(2)5-4-6-10(3)7-8-11/h5,7,11H,4,6,8H2,1-3H3
Instrument: Bruker MicrOTOF-Q
Instrument type: LC-ESI-QTOF
Ms type: MS2
Ion mode: POSITIVE
Ionization: ESI
Collision energy: 0.00
Column name: Acquity CSHC18
Retention time: NA
Base peak: 273.2577
Precursor m/z: 273.2577
Precursor type: [2M-2H2O+H]+
m/z	relative intensity
107.0844	2
108.0871	1
117.0683	1
119.084	28
120.0852	3
121.0992	46
122.1026	6
123.1153	58
124.1167	8
131.0801	2
133.0989	47
134.1044	6
135.1155	105
136.1189	9
137.1303	73
138.1384	8
147.1151	72
148.1198	9
149.1314	115
150.1345	13
151.1463	35
152.1475	7
159.1157	5
161.1327	93
162.135	11
163.1474	139
164.1504	19
165.1638	19
166.1701	3
167.4751	1
173.1324	3
175.1483	119
176.1516	21
177.1637	124
178.1681	24
179.1769	9
188.1588	3
189.1636	228
190.1672	35
191.1789	156
192.1833	21
193.0888	2
193.1941	3
201.1649	2
203.1788	313
204.1831	42
205.1967	22
206.2019	3
211.0979	3
212.1041	1
215.1843	8
216.1833	2
217.0808	1
217.1956	418
217.4971	1
218.1986	65
219.2039	2
229.1065	1
229.1941	2
230.2004	9
231.2099	92
232.2111	11
245.2268	6
246.2328	2
254.2466	4
256.2596	1
272.2539	1
273.2575	999
273.5152	2
273.6186	2
274.0873	1
274.2612	214
274.4984	1
275.2636	4
