Mass spectrum: GLUCOSAMINE 6-PHOSPHATE; LC-ESI-QFT; MS2; CE: 30eV;  [M+H]+
Name: GLUCOSAMINE 6-PHOSPHATE
Class: NA
Formula: C6H14NO8P
Exact mass: 259.04570
SMILES: N[C@H]1[C@@H](O)O[C@H](COP(O)(O)=O)[C@@H](O)[C@@H]1O
InChI: InChI=1S/C6H14NO8P/c7-3-5(9)4(8)2(15-6(3)10)1-14-16(11,12)13/h2-6,8-10H,1,7H2,(H2,11,12,13)/t2-,3-,4-,5-,6+/m1/s1
Instrument: Q-Exactive Orbitrap, Thermo Scientfic; Ultimate 3000 HPLC, Thermo Scientfic
Instrument type: LC-ESI-QFT
Ms type: MS2
Ion mode: POSITIVE
Ionization: ESI
Collision energy: 30eV
Column name: Acquity CSHC18
Retention time: 0.581 min
Base peak: 260.0530
Precursor m/z: 260.0530
Precursor type: [M+H]+
Precursor intensity: 108
m/z	relative intensity
50.6975	1
52.3948	1
53.0394	4
55.055	2
56.0503	4
57.0231	1
63.5896	2
63.8732	2
63.9991	2
69.0342	2
70.0659	9
72.0452	25
80.0502	35
81.0343	22
84.0451	216
85.029	3
85.0422	2
95.1648	2
95.7599	2
96.045	3
96.3215	2
98.0607	174
98.9848	42
99.0447	2
100.6775	2
107.6068	2
108.045	141
109.029	94
109.0482	2
113.6723	2
116.071	2
124.0257	2
126.0554	999
127.0394	9
127.0586	18
138.4203	2
140.9951	5
144.0659	261
145.0693	2
161.0007	2
162.0763	4
171.0053	3
178.0267	16
188.9952	16
196.7388	2
206.0218	227
207.0252	3
215.7819	2
224.0323	29
234.2018	3
242.0432	11
244.5161	2
260.053	3
