Mass spectrum: Maltose; LC-ESI-QTOF; MS2; CE: 35.00;  [M+Na]+
Name: Maltose
Class: NA
Formula: C12H22O11
Exact mass: 342.1162
SMILES: C(C1C(C(C(C(O1)OC2C(OC(C(C2O)O)O)CO)O)O)O)O
InChI: InChI=1S/C12H22O11/c13-1-3-5(15)6(16)9(19)12(22-3)23-10-4(2-14)21-11(20)8(18)7(10)17/h3-20H,1-2H2
Instrument: Bruker MicrOTOF-Q
Instrument type: LC-ESI-QTOF
Ms type: MS2
Ion mode: POSITIVE
Ionization: ESI
Collision energy: 35.00
Column name: Acquity CSHC18
Retention time: NA
Base peak: 365.1050
Precursor m/z: 365.1050
Precursor type: [M+Na]+
m/z	relative intensity
124.9873	207
134.9755	150
140.9826	300
159.0014	331
170.9981	372
182.9969	999
184.0029	107
201.0089	851
202.0109	143
203.0555	140
219.0231	181
243.016	363
261.0266	191
