Mass spectrum: Creatine; LC-ESI-ITFT; MS2; CE: 60;  [M-H]-
Name: Creatine
Class: Organic acids and derivatives; Carboxylic acids and derivatives; Amino acids, peptides, and analogues
Formula: C4H9N3O2
Exact mass: 131.06948
SMILES: CN(CC(O)=O)C(N)=N
InChI: InChI=1S/C4H9N3O2/c1-7(4(5)6)2-3(8)9/h2H2,1H3,(H3,5,6)(H,8,9)
Instrument: Thermo Scientific Q-Exactive Focus
Instrument type: LC-ESI-ITFT
Ms type: MS2
Ion mode: NEGATIVE
Ionization: ESI
Collision energy: 60
Column name: Acquity CSHC18
Retention time: 2.031 min
Base peak: 130.06219
Precursor m/z: 130.06219
Precursor type: [M-H]-
m/z	relative intensity
78.0464	668
94.4905	679
96.5356	700
97.1841	730
97.6339	706
99.3297	654
100.2905	675
106.263	653
137.8043	659
140.9469	999
