Mass spectrum: PYRIDOXAL; LC-ESI-QTOF; MS2; CE: 10;  [M-H]-
Name: PYRIDOXAL
Class: NA
Formula: C8H9NO3
Exact mass: 167.05824
SMILES: CC1=NC=C(CO)C(C=O)=C1O
InChI: InChI=1S/C8H9NO3/c1-5-8(12)7(4-11)6(3-10)2-9-5/h2,4,10,12H,3H2,1H3
Instrument: Agilent 6530Â Q-TOF LC/MS
Instrument type: LC-ESI-QTOF
Ms type: MS2
Ion mode: NEGATIVE
Ionization: ESI
Collision energy: 10
Column name: NA
Retention time: 0.200 min
Base peak: 166.05326
Precursor m/z: 166.05326
Precursor type: [M-H]-
Precursor intensity: 162
m/z	relative intensity
92.05	117
94.0274	146
107.035	152
108.0698	172
120.0417	236
122.0639	490
136.0555	585
138.0797	839
166.068	999
