Mass spectrum: CORTISOL; LC-ESI-QTOF; MS2; CE: 40;  [M+H]+
Name: CORTISOL
Class: NA
Formula: C21H30O5
Exact mass: 362.20932
SMILES: [H][C@@]12CC[C@@](O)(C(=O)CO)[C@@]1(C)C[C@H](O)[C@@]1([H])[C@@]2([H])CCC2=CC(=O)CC[C@]12C
InChI: InChI=1S/C21H30O5/c1-19-7-5-13(23)9-12(19)3-4-14-15-6-8-21(26,17(25)11-22)20(15,2)10-16(24)18(14)19/h9,14-16,18,22,24,26H,3-8,10-11H2,1-2H3/t14-,15-,16-,18+,19-,20-,21+/m0/s1
Instrument: Agilent 6530Â Q-TOF LC/MS
Instrument type: LC-ESI-QTOF
Ms type: MS2
Ion mode: POSITIVE
Ionization: ESI
Collision energy: 40
Column name: NA
Retention time: 0.200 min
Base peak: 363.21302
Precursor m/z: 363.21302
Precursor type: [M+H]+
Precursor intensity: 101.5
m/z	relative intensity
41.057	15
42.0099	15
43.0526	15
45.038	15
49.0284	15
51.0349	16
53.0503	16
54.04	16
55.0602	16
57.0554	16
59.0508	16
61.0358	16
65.0511	16
66.0441	17
67.0844	17
69.0775	17
69.4042	17
71.0588	17
77.0674	17
77.3695	17
78.0516	17
79.0879	17
79.2357	18
79.3225	18
80.0618	18
81.0855	18
83.0793	18
85.0471	19
91.1804	19
91.5323	19
92.0677	19
93.0934	19
93.2584	19
94.0457	20
95.1058	20
97.1055	20
99.0641	20
103.0769	20
104.0684	21
105.1088	21
105.4101	21
105.5941	22
106.0923	22
107.1041	22
108.0671	22
109.1033	22
109.7057	22
111.0858	22
113.0419	23
115.0794	23
116.0775	24
117.1127	24
117.3809	24
118.0898	25
119.1268	25
119.393	25
120.0849	25
121.3664	25
121.9289	26
122.0829	27
123.1152	27
123.2869	27
125.0752	28
126.077	28
127.0732	28
128.0993	28
128.4628	29
129.1067	29
129.527	30
130.1049	31
130.4811	31
131.1443	31
131.4107	31
132.0899	31
133.1129	31
133.3278	32
134.0933	33
135.1173	33
135.6607	33
137.0964	34
139.0797	34
141.1045	34
142.1207	35
142.6199	35
143.1421	35
144.0987	35
145.1291	37
145.4019	37
146.1146	37
147.2309	37
148.127	38
149.1052	43
151.0887	43
152.073	43
153.096	46
154.101	46
155.1308	46
155.5094	47
156.1174	47
156.881	47
157.1323	48
157.6932	50
158.1109	52
159.1431	52
160.1134	53
161.1375	53
162.1102	54
163.1334	55
164.1158	56
165.1011	59
166.0967	60
167.1139	61
167.8259	61
168.1193	61
169.1277	62
170.1092	62
171.131	63
172.1296	64
173.1424	64
174.1204	64
175.1353	65
176.1226	66
177.128	66
178.1057	68
179.1167	68
180.1229	69
181.1242	69
182.1167	72
183.143	73
184.1254	73
185.1456	74
186.1568	75
187.1394	75
188.1168	76
189.1125	78
190.0958	79
191.1077	80
192.1192	81
192.9901	82
193.1294	84
194.1263	85
195.1377	85
196.1357	97
197.1483	99
198.1434	99
199.1531	100
200.137	100
201.1558	102
203.1236	103
204.0927	107
205.1174	107
206.1364	110
207.1292	112
208.1449	114
209.1466	115
210.1341	117
211.1572	119
212.141	121
213.1523	127
214.1366	129
215.1273	133
216.1372	139
217.1157	139
218.1091	140
219.1387	140
220.1197	152
221.1412	166
222.1181	172
223.1571	177
224.1342	179
225.165	179
226.1636	187
227.1689	192
228.1584	195
229.1283	195
230.1022	201
231.1336	202
233.1463	204
234.1318	205
235.1545	224
236.1267	231
237.1538	240
238.1521	240
239.1659	249
240.164	251
241.182	254
242.1755	261
243.162	276
245.1455	289
247.1552	309
248.1427	315
249.1594	318
250.1328	335
251.1718	342
252.1628	352
253.1876	363
254.1872	364
255.175	379
258.1406	397
261.1419	416
263.1694	419
265.1628	420
266.1576	434
267.1918	436
268.1998	446
269.1674	447
271.1739	454
273.1689	469
279.169	534
281.1835	600
283.1522	999
284.1705	15
285.1762	15
286.203	15
291.1838	15
294.1496	15
297.1947	16
299.1888	16
