Mass spectrum: 1,2-dipalmitoyl-sn-glycero-3-phosphocholine; ESI-TOF; MS2; CE: 6.0000000;  [M+H]+
Name: 1,2-dipalmitoyl-sn-glycero-3-phosphocholine
Class: NA
Formula: C40H80NO8P
Exact mass: 733.56216
SMILES: [H]C([H])([H])C([H])([H])C([H])([H])C([H])([H])C([H])([H])C([H])([H])C([H])([H])C([H])([H])C([H])([H])C([H])([H])C([H])([H])C([H])([H])C([H])([H])C([H])([H])C([H])([H])C(=O)OC([H])([H])C([H])(OC(=O)C([H])([H])C([H])([H])C([H])([H])C([H])([H])C([H])([H])C([H])([H])C([H])([H])C([H])([H])C([H])([H])C([H])([H])C([H])([H])C([H])([H])C([H])([H])C([H])([H])C([H])([H])[H])C([H])([H])OP(=O)([O-])OC([H])([H])C([H])([H])[N+](C([H])([H])[H])(C([H])([H])[H])C([H])([H])[H]
InChI: InChI=1S/C40H80NO8P/c1-6-8-10-12-14-16-18-20-22-24-26-28-30-32-39(42)46-36-38(37-48-50(44,45)47-35-34-41(3,4)5)49-40(43)33-31-29-27-25-23-21-19-17-15-13-11-9-7-2/h38H,6-37H2,1-5H3
Instrument: waters xevo g2 TOF
Instrument type: ESI-TOF
Ms type: MS2
Ion mode: POSITIVE
Ionization: ESI
Collision energy: 6.0000000
Column name: Acquity CSHC18
Retention time: 11.052 min
Base peak: 734.57016
Precursor m/z: 734.57016
Precursor type: [M+H]+
m/z	relative intensity
127.9607	3
145.9545	3
161.0266	2
184.0742	15
295.1953	90
296.1987	13
313.1672	6
378.7736	4
379.7549	3
386.7626	140
387.2645	30
387.7658	20
395.2504	8
451.7396	7
452.2411	4
459.7274	4
478.329	76
479.3327	49
515.4127	371
534.8884	61
551.4808	5
552.506	4
553.371	4
561.4733	3
562.4768	3
587.3826	23
619.3333	2
643.965	27
644.4664	29
644.9661	15
651.9534	9
652.4535	6
652.9487	5
653.9533	2
720.5498	12
721.5579	5
734.5694	999
735.5727	711
