Mass spectrum: C17:1 anandamide; ESI-TOF; MS2; CE: 0.6458333;  [M+H]+
Name: C17:1 anandamide
Class: NA
Formula: C19H37NO2
Exact mass: 311.28243
SMILES: [H]OC([H])([H])C([H])([H])N([H])C(=O)C([H])([H])C([H])([H])C([H])([H])C([H])([H])C([H])([H])C([H])([H])C([H])([H])C([H])([H])C([H])=C([H])C([H])([H])C([H])([H])C([H])([H])C([H])([H])C([H])([H])C([H])([H])[H]
InChI: InChI=1S/C19H37NO2/c1-2-3-4-5-6-7-8-9-10-11-12-13-14-15-16-19(22)20-17-18-21/h7-8,21H,2-6,9-18H2,1H3,(H,20,22)
Instrument: waters xevo g2 TOF
Instrument type: ESI-TOF
Ms type: MS2
Ion mode: POSITIVE
Ionization: ESI
Collision energy: 0.6458333
Column name: Acquity CSHC18
Retention time: 7.124 min
Base peak: 312.29043
Precursor m/z: 312.29043
Precursor type: [M+H]+
m/z	relative intensity
62.061	536
67.0552	79
69.0706	221
71.0856	19
79.0544	64
81.0703	234
83.0862	271
84.089	12
85.1021	22
93.0707	139
95.0862	333
96.0887	26
97.1017	244
98.0264	28
99.0444	21
100.0073	21
107.0859	123
109.1015	154
110.1047	14
111.1176	65
121.1016	239
123.1179	52
125.0967	15
135.1176	191
137.1323	35
149.1327	78
151.149	16
153.6089	12
163.1488	26
175.6228	59
176.1248	13
177.1652	12
200.0227	12
214.0371	21
233.2268	59
242.0701	18
251.237	30
289.1836	17
294.2798	590
295.2654	684
296.2681	141
306.2109	15
307.1954	32
312.2901	999
313.2936	225
