Mass spectrum: Salicylic acid glucoside; LC-ESI-QTOF; MS2; CE: 50eV;  [M-H]-
Name: Salicylic acid glucoside
Class: Benzoic acid derivative
Formula: C13H16O8
Exact mass: 300.0845
SMILES: C1=CC=C(C(=C1)C(=O)O)OC2C(C(C(C(O2)CO)O)O)O
InChI: InChI=1S/C13H16O8/c14-5-8-9(15)10(16)11(17)13(21-8)20-7-4-2-1-3-6(7)12(18)19/h1-4,8-11,13-17H,5H2,(H,18,19)
Instrument: TIMS-TOF Pro, Bruker Daltonik; Elute UHPLC System, Bruker Daltonik
Instrument type: LC-ESI-QTOF
Ms type: MS2
Ion mode: NEGATIVE
Ionization: ESI
Collision energy: 50eV
Column name: Acquity CSHC18
Retention time: 3.886 min
Base peak: 299.0784
Precursor m/z: 299.0784
Precursor type: [M-H]-
Precursor intensity: 1857
m/z	relative intensity
33.8301	5
37.7867	5
93.0345	999
94.0379	48
138.0276	8
