Mass spectrum: Creatinine; LC-ESI-ITFT; MS2; CE: 100;  [M-H]-
Name: Creatinine
Class: Organic acids and derivatives; Carboxylic acids and derivatives; Amino acids, peptides, and analogues
Formula: C4H7N3O
Exact mass: 113.05891
SMILES: CN1CC(=O)NC1=N
InChI: InChI=1S/C4H7N3O/c1-7-2-3(8)6-4(7)5/h2H2,1H3,(H2,5,6,8)
Instrument: Thermo Scientific Q-Exactive Focus
Instrument type: LC-ESI-ITFT
Ms type: MS2
Ion mode: NEGATIVE
Ionization: ESI
Collision energy: 100
Column name: Acquity CSHC18
Retention time: 2.581 min
Base peak: 112.05164
Precursor m/z: 112.05164
Precursor type: [M-H]-
m/z	relative intensity
62.4451	880
67.9962	799
98.1007	903
98.1571	852
101.7907	877
103.0135	902
106.6663	798
113.221	830
122.6805	999
123.9489	940
