Mass spectrum: Vanillic acid; LC-ESI-QTOF; MS2; CE: 15.00;  [M+H]+
Name: Vanillic acid
Class: NA
Formula: C8H8O4
Exact mass: 168.0423
SMILES: COC1=C(C=CC(=C1)C(=O)O)O
InChI: InChI=1S/C8H8O4/c1-12-7-4-5(8(10)11)2-3-6(7)9/h2-4,9H,1H3,(H,10,11)
Instrument: Bruker MicrOTOF-Q
Instrument type: LC-ESI-QTOF
Ms type: MS2
Ion mode: POSITIVE
Ionization: ESI
Collision energy: 15.00
Column name: Acquity CSHC18
Retention time: NA
Base peak: 169.0495
Precursor m/z: 169.0495
Precursor type: [M+H]+
m/z	relative intensity
65.0377	6
93.0311	217
94.0347	23
95.0449	17
97.0263	3
107.0471	8
108.02	51
109.0306	58
109.9569	3
110.0376	395
110.1483	4
110.2337	2
110.3315	3
111.0412	27
114.9931	4
115.2819	4
119.0098	15
123.0447	198
123.2164	2
123.383	3
124.0489	63
125.0593	281
126.0618	25
136.0144	59
137.0244	30
139.0459	3
141.0553	15
150.8915	4
151.0387	999
151.1931	2
151.266	3
151.336	2
151.419	5
151.5204	2
152.0444	96
152.9681	3
153.025	19
154.023	7
169.0536	35
170.0475	4
285.197	2
297.2885	5
327.3468	3
506.4018	4
640.1894	3
