Mass spectrum: Thymine; LC-ESI-QTOF; MS2; CE: 15.00;  [M+H]+
Name: Thymine
Class: NA
Formula: C5H6N2O2
Exact mass: 126.0429
SMILES: CC1=CNC(=O)NC1=O
InChI: InChI=1S/C5H6N2O2/c1-3-2-6-5(9)7-4(3)8/h2H,1H3,(H2,6,7,8,9)
Instrument: Bruker MicrOTOF-Q
Instrument type: LC-ESI-QTOF
Ms type: MS2
Ion mode: POSITIVE
Ionization: ESI
Collision energy: 15.00
Column name: Acquity CSHC18
Retention time: NA
Base peak: 127.0502
Precursor m/z: 127.0502
Precursor type: [M+H]+
m/z	relative intensity
110.0224	175
127.0507	999
128.0538	83
