Mass spectrum: Biotin; LC-ESI-ITFT; MS2; CE: 30;  [M+H]+
Name: Biotin
Class: Organoheterocyclic compounds; Biotin and derivatives
Formula: C10H16N2O3S
Exact mass: 244.08816
SMILES: [H][C@]12CS[C@@H](CCCCC(O)=O)[C@@]1([H])NC(=O)N2
InChI: InChI=1S/C10H16N2O3S/c13-8(14)4-2-1-3-7-9-6(5-16-7)11-10(15)12-9/h6-7,9H,1-5H2,(H,13,14)(H2,11,12,15)/t6-,7-,9-/m0/s1
Instrument: Thermo Scientific Q-Exactive Focus
Instrument type: LC-ESI-ITFT
Ms type: MS2
Ion mode: POSITIVE
Ionization: ESI
Collision energy: 30
Column name: Acquity CSHC18
Retention time: NA
Base peak: 245.09544
Precursor m/z: 245.09544
Precursor type: [M+H]+
m/z	relative intensity
79.0546	228
97.011	466
97.04	999
105.0701	494
123.0264	875
139.0576	428
166.0684	456
167.0525	255
184.079	247
227.0847	586
