Mass spectrum: Resveratrol; LC-ESI-ITFT; MS2; CE: 40;  [M+H]+
Name: Resveratrol
Class: Phenylpropanoids and polyketides; Stilbenes
Formula: C14H12O3
Exact mass: 228.07864
SMILES: OC1=CC=C(\C=C\C2=CC(O)=CC(O)=C2)C=C1
InChI: InChI=1S/C14H12O3/c15-12-5-3-10(4-6-12)1-2-11-7-13(16)9-14(17)8-11/h1-9,15-17H/b2-1+
Instrument: Thermo Scientific Q-Exactive Focus
Instrument type: LC-ESI-ITFT
Ms type: MS2
Ion mode: POSITIVE
Ionization: ESI
Collision energy: 40
Column name: Acquity CSHC18
Retention time: 1.463 min
Base peak: 229.08592
Precursor m/z: 229.08592
Precursor type: [M+H]+
m/z	relative intensity
53.0392	126
65.0391	195
79.0547	205
91.0546	637
95.0495	307
107.0495	999
115.0544	160
120.0572	148
153.0699	146
165.0699	481
