Mass spectrum: 4-PYRIDOXATE; LC-ESI-QTOF; MS2; CE: 40;  [M-H]-
Name: 4-PYRIDOXATE
Class: NA
Formula: C8H9NO4
Exact mass: 183.05316
SMILES: CC1=NC=C(CO)C(C(O)=O)=C1O
InChI: InChI=1S/C8H9NO4/c1-4-7(11)6(8(12)13)5(3-10)2-9-4/h2,10-11H,3H2,1H3,(H,12,13)
Instrument: Agilent 6530Â Q-TOF LC/MS
Instrument type: LC-ESI-QTOF
Ms type: MS2
Ion mode: NEGATIVE
Ionization: ESI
Collision energy: 40
Column name: NA
Retention time: 0.200 min
Base peak: 182.04995
Precursor m/z: 182.04995
Precursor type: [M-H]-
Precursor intensity: 118
m/z	relative intensity
40.0229	120
41.0103	122
49.0186	130
51.0344	152
65.0204	178
66.037	215
79.0375	224
92.0518	250
94.032	317
106.0338	463
107.046	612
108.0629	687
120.0472	692
122.0282	999
