Mass spectrum: Vitexin 2'-xyloside; LC-ESI-QTOF; MS2; CE: 20-40eV;  [M+H]+
Name: Vitexin 2'-xyloside
Class: Flavonoid C- glycosides
Formula: C26H28O14
Exact mass: 564.1479
SMILES: C=1C=C(C=CC1C2=CC(C=3C(=CC(=C(C3O2)C4(C(C(C(C(CO)(O4)[H])(O)[H])(O)[H])(OC5(C(C(C(CO5)(O)[H])(O)[H])(O)[H])[H])[H])[H])O)O)=O)O
InChI: InChI=1S/C26H28O14/c27-7-16-20(34)21(35)25(40-26-22(36)19(33)14(32)8-37-26)24(39-16)18-12(30)5-11(29)17-13(31)6-15(38-23(17)18)9-1-3-10(28)4-2-9/h1-6,14,16,19-22,24-30,32-36H,7-8H2
Instrument: Impact II, Bruker; Dionex 3000, Thermo Scientific
Instrument type: LC-ESI-QTOF
Ms type: MS2
Ion mode: POSITIVE
Ionization: ESI
Collision energy: 20-40eV
Column name: Acquity CSHC18
Retention time: 4.537 min
Base peak: 565.1548
Precursor m/z: 565.1548
Precursor type: [M+H]+
Precursor intensity: 758466
m/z	relative intensity
323.0731	126
324.0759	236
565.2938	999
