Mass spectrum: RIBITOL; LC-ESI-QTOF; MS2; CE: 40;  [M-H]-
Name: RIBITOL
Class: NA
Formula: C5H12O5
Exact mass: 152.06847
SMILES: OC[C@H](O)[C@H](O)[C@H](O)CO
InChI: InChI=1S/C5H12O5/c6-1-3(8)5(10)4(9)2-7/h3-10H,1-2H2/t3-,4+,5-
Instrument: Agilent 6530Â Q-TOF LC/MS
Instrument type: LC-ESI-QTOF
Ms type: MS2
Ion mode: NEGATIVE
Ionization: ESI
Collision energy: 40
Column name: NA
Retention time: 0.200 min
Base peak: 151.05749
Precursor m/z: 151.05749
Precursor type: [M-H]-
Precursor intensity: 121
m/z	relative intensity
41.0218	134
43.031	147
45.0074	368
55.0284	413
56.9983	415
58.0027	452
59.0226	598
71.0232	999
