Mass spectrum: Methyl alpha-D-glucoside; LC-ESI-QTOF; MS2; CE: 35.00;  [2M+Na]+
Name: Methyl alpha-D-glucoside
Class: NA
Formula: C7H14O6
Exact mass: 194.0790
SMILES: COC1C(C(C(C(O1)CO)O)O)O
InChI: InChI=1S/C7H14O6/c1-12-7-6(11)5(10)4(9)3(2-8)13-7/h3-11H,2H2,1H3
Instrument: Bruker MicrOTOF-Q
Instrument type: LC-ESI-QTOF
Ms type: MS2
Ion mode: POSITIVE
Ionization: ESI
Collision energy: 35.00
Column name: Acquity CSHC18
Retention time: NA
Base peak: 411.1473
Precursor m/z: 411.1473
Precursor type: [2M+Na]+
m/z	relative intensity
107.0025	4
110.0147	6
122.0165	3
131.0163	9
145.0056	4
146.0209	7
147.0295	5
152.0194	2
157.0074	3
158.9933	22
170.996	39
175.0122	4
182.0318	14
182.9958	41
187.0076	3
188.9991	13
198.9732	5
201.007	34
203.0211	5
214.9814	4
217.0683	999
217.2215	4
218.0719	73
219.0214	6
219.0759	12
233.0396	7
243.022	6
269.0568	3
293.0447	3
