Mass spectrum: L-Glutathione; LC-ESI-QTOF; MS2; CE: 38.33;  [M-H]-
Name: L-Glutathione
Class: NA
Formula: C20H32N6O12S2
Exact mass: 612.1520
SMILES: C(CC(=O)NC(CSSCC(C(=O)NCC(=O)O)NC(=O)CCC(C(=O)O)N)C(=O)NCC(=O)O)C(C(=O)O)N
InChI: InChI=1S/C20H32N6O12S2/c21-9(19(35)36)1-3-13(27)25-11(17(33)23-5-15(29)30)7-39-40-8-12(18(34)24-6-16(31)32)26-14(28)4-2-10(22)20(37)38/h9-12H,1-8,21-22H2,(H,23,33)(H,24,34)(H,25,27)(H,26,28)(H,29,30)(H,31,32)(H,35,36)(H,37,38)
Instrument: Bruker MicrOTOF-Q
Instrument type: LC-ESI-QTOF
Ms type: MS2
Ion mode: NEGATIVE
Ionization: ESI
Collision energy: 38.33
Column name: Acquity CSHC18
Retention time: NA
Base peak: 611.1461
Precursor m/z: 611.1461
Precursor type: [M-H]-
m/z	relative intensity
128.0332	907
141.0506	232
142.9843	522
143.0465	966
146.0485	468
160.0137	552
175.0173	304
179.0447	804
184.1103	430
193.077	398
210.0914	999
242.0811	485
254.0819	621
255.0847	313
272.088	835
306.0786	605
