Mass spectrum: 3beta-Ethylamino-5alpha-solanidan; APCI-ITFT; MS2; CE: 35 CID;  [M+H]+
Name: 3beta-Ethylamino-5alpha-solanidan
Class: NA
Formula: C29H50N2
Exact mass: 426.39740
SMILES: C[C@@]12[C@](CC[C@]3([H])[C@]2([H])CC[C@@]4(C)[C@@]3([H])C[C@@]5([H])[C@]4([H])[C@H](C)[C@]6([H])N5C[C@@H](C)CC6)([H])C[C@@H](NCC)CC1
InChI: InChI=1S/C29H50N2/c1-6-30-21-11-13-28(4)20(15-21)8-9-22-23(28)12-14-29(5)24(22)16-26-27(29)19(3)25-10-7-18(2)17-31(25)26/h18-27,30H,6-17H2,1-5H3/t18-,19+,20-,21-,22+,23-,24-,25+,26-,27-,28-,29-/m0/s1
Instrument: Orbitrap Elite
Instrument type: APCI-ITFT
Ms type: MS2
Ion mode: POSITIVE
Ionization: APCI
Collision energy: 35 CID
Column name: Acquity CSHC18
Retention time: 0.125 min
Base peak: 427.40370
Precursor m/z: 427.40370
Precursor type: [M+H]+
Precursor intensity: 1595895000
m/z	relative intensity
145.0995	2
147.1166	3
150.1274	6
152.1423	2
159.1167	3
161.1304	2
173.1334	3
199.1469	1
255.2115	12
300.2682	3
330.314	4
382.3451	381
384.3672	1
425.3536	4
427.405	999
