Mass spectrum: AL 8810 ethyl amide; ESI-TOF; MS2; CE: 6.0000000;  [M+H]+
Name: AL 8810 ethyl amide
Class: NA
Formula: C26H36FNO3
Exact mass: 429.26792
SMILES: O[C@@H]1[C@H](C/C=C\CCCC(NCC)=O)[C@@H](/C=C/[C@H](O)C2CC3=CC=CC=C3C2)[C@@H](F)C1
InChI: InChI=1S/C26H36FNO3/c1-2-28-26(31)12-6-4-3-5-11-22-21(23(27)17-25(22)30)13-14-24(29)20-15-18-9-7-8-10-19(18)16-20/h3,5,7-10,13-14,20-25,29-30H,2,4,6,11-12,15-17H2,1H3,(H,28,31)/b5-3-,14-13+/t21-,22-,23+,24+,25+/m1/s1
Instrument: waters xevo g2 TOF
Instrument type: ESI-TOF
Ms type: MS2
Ion mode: POSITIVE
Ionization: ESI
Collision energy: 6.0000000
Column name: Acquity CSHC18
Retention time: 3.816 min
Base peak: 430.27592
Precursor m/z: 430.27592
Precursor type: [M+H]+
m/z	relative intensity
114.0927	3
128.1083	16
129.0711	47
130.0747	4
145.1029	1
148.5695	3
155.0869	73
156.0906	8
157.5766	2
199.1118	1
205.1029	2
206.6023	8
207.1106	3
213.1277	6
215.607	29
216.0987	4
219.118	19
220.1217	1
224.6114	7
232.1701	12
233.1319	1
242.1534	1
244.1695	18
245.1414	1
258.1849	66
259.1686	8
276.1946	2
294.1841	3
296.2015	1
301.1931	1
311.1799	7
329.1902	53
330.1934	11
331.1938	1
346.2171	1
347.202	8
348.2166	4
367.2	1
374.2487	526
375.2515	163
376.254	19
392.2597	155
393.2618	45
394.2569	23
395.2613	5
411.2263	1
412.265	999
413.2683	309
414.258	45
415.2732	4
420.2371	4
420.7351	1
429.2396	3
429.7509	1
