Mass spectrum: H-Leu-Tyr-OH; LC-ESI-QTOF; MS2; CE: 31.79;  [2M+H]+
Name: H-Leu-Tyr-OH
Class: NA
Formula: C15H22N2O4
Exact mass: 294.1580
SMILES: CC(C)CC(C(=O)NC(CC1=CC=C(C=C1)O)C(=O)O)N
InChI: InChI=1S/C15H22N2O4/c1-9(2)7-12(16)14(19)17-13(15(20)21)8-10-3-5-11(18)6-4-10/h3-6,9,12-13,18H,7-8,16H2,1-2H3,(H,17,19)(H,20,21)
Instrument: Bruker MicrOTOF-Q
Instrument type: LC-ESI-QTOF
Ms type: MS2
Ion mode: POSITIVE
Ionization: ESI
Collision energy: 31.79
Column name: Acquity CSHC18
Retention time: NA
Base peak: 589.3232
Precursor m/z: 589.3232
Precursor type: [2M+H]+
m/z	relative intensity
147.05	4
165.05	91
182.08	588
183.08	51
183.15	6
209.65	7
233.14	7
249.16	82
249.36	5
250.16	13
251.56	6
263.76	5
267.17	11
277.15	17
278.14	5
293.78	4
294.39	4
294.79	6
295.03	6
295.16	999
295.55	4
296.17	173
297.18	12
746.93	4
