Mass spectrum: 3-Ara-Bayogenin; ESI-QTOF; MS2; CE: 30 eV;  [M-H]-
Name: 3-Ara-Bayogenin
Class: Saponin
Formula: C35H56O9
Exact mass: 620.3924
SMILES: CC1(C)CCC2(CCC3(C)C(=CCC4(C5(C)CC(C(C(C)(CO)C5(CCC43C)[H])(OC6(C(C(C(CO6)(O)[H])(O)[H])(O)[H])[H])[H])(O)[H])[H])C2(C1)[H])C(=O)O
InChI: InChI=1S/C35H56O9/c1-30(2)11-13-35(29(41)42)14-12-33(5)19(20(35)15-30)7-8-24-31(3)16-21(37)27(44-28-26(40)25(39)22(38)17-43-28)32(4,18-36)23(31)9-10-34(24,33)6/h7,20-28,36-40H,8-18H2,1-6H3,(H,41,42)
Instrument: Synapt (HDMS 1st gen)
Instrument type: ESI-QTOF
Ms type: MS2
Ion mode: NEGATIVE
Ionization: ESI
Collision energy: 30 eV
Column name: Acquity CSHC18
Retention time: 26.991 min
Base peak: 619.3903
Precursor m/z: 619.3903
Precursor type: [M-H]-
Precursor intensity: 24.26
m/z	relative intensity
83.677	12
87.8675	12
109.892	12
134.3175	12
148.3955	12
162.785	12
176.4494	12
202.3634	12
226.1321	12
227.6519	12
260.5192	12
286.8547	12
290.8561	12
302.5425	12
302.9521	12
322.326	12
331.7614	12
381.5217	12
406.1576	12
420.6294	12
420.6943	12
422.6478	12
447.7112	12
463.6887	12
487.9755	12
533.3118	12
576.0538	12
606.4973	12
613.9774	12
618.4852	25
619.382	999
