Mass spectrum: Spermidine; LC-ESI-ITFT; MS2; CE: 60;  [M+H]+
Name: Spermidine
Class: Organic nitrogen compounds; Organonitrogen compounds; Amines
Formula: C7H19N3
Exact mass: 145.15790
SMILES: NCCCCNCCCN
InChI: InChI=1S/C7H19N3/c8-4-1-2-6-10-7-3-5-9/h10H,1-9H2
Instrument: Thermo Scientific Q-Exactive Focus
Instrument type: LC-ESI-ITFT
Ms type: MS2
Ion mode: POSITIVE
Ionization: ESI
Collision energy: 60
Column name: Acquity CSHC18
Retention time: 2.015 min
Base peak: 146.16518
Precursor m/z: 146.16518
Precursor type: [M+H]+
m/z	relative intensity
72.0812	999
82.1681	375
90.0942	422
91.9108	426
98.2764	421
98.5016	387
105.3665	384
108.4418	469
131.5905	396
147.2898	379
