Mass spectrum: Dopamine; LC-ESI-ITFT; MS2; CE: 40;  [M+H]+
Name: Dopamine
Class: Benzenoids; Phenols; Benzenediols
Formula: C8H11NO2
Exact mass: 153.07898
SMILES: NCCC1=CC(O)=C(O)C=C1
InChI: InChI=1S/C8H11NO2/c9-4-3-6-1-2-7(10)8(11)5-6/h1-2,5,10-11H,3-4,9H2
Instrument: Thermo Scientific Q-Exactive Focus
Instrument type: LC-ESI-ITFT
Ms type: MS2
Ion mode: POSITIVE
Ionization: ESI
Collision energy: 40
Column name: Acquity CSHC18
Retention time: 1.463 min
Base peak: 154.08626
Precursor m/z: 154.08626
Precursor type: [M+H]+
m/z	relative intensity
51.0235	8
53.0028	17
53.0392	6
55.0184	3
63.0235	38
65.0391	999
76.0629	3
79.0547	8
89.0389	5
91.0546	656
