Mass spectrum: AICAR; LC-ESI-QTOF; MS2; CE: 20;  [M+H]+
Name: AICAR
Class: NA
Formula: C9H15N4O8P
Exact mass: 338.0628
SMILES: NC(=O)C1=C(N)N(C=N1)[C@@H]1O[C@H](COP(O)(O)=O)[C@@H](O)[C@H]1O
InChI: InChI=1S/C9H15N4O8P/c10-7-4(8(11)16)12-2-13(7)9-6(15)5(14)3(21-9)1-20-22(17,18)19/h2-3,5-6,9,14-15H,1,10H2,(H2,11,16)(H2,17,18,19)/t3-,5-,6-,9-/m1/s1
Instrument: Agilent 6530Â Q-TOF LC/MS
Instrument type: LC-ESI-QTOF
Ms type: MS2
Ion mode: POSITIVE
Ionization: ESI
Collision energy: 20
Column name: NA
Retention time: 0.200 min
Base peak: 339.07018
Precursor m/z: 339.07018
Precursor type: [M+H]+
Precursor intensity: 51.5
m/z	relative intensity
97.0275	229
110.0356	297
127.0563	366
128.0342	432
235.2998	999
