Mass spectrum: 3-Hydroxyanthranilic acid; LC-ESI-ITFT; MS2; CE: 40;  [M+H]+
Name: 3-Hydroxyanthranilic acid
Class: Benzenoids; Benzene and substituted derivatives; Benzoic acids and derivatives
Formula: C7H7NO3
Exact mass: 153.04259
SMILES: NC1=C(O)C=CC=C1C(O)=O
InChI: InChI=1S/C7H7NO3/c8-6-4(7(10)11)2-1-3-5(6)9/h1-3,9H,8H2,(H,10,11)
Instrument: Thermo Scientific Q-Exactive Focus
Instrument type: LC-ESI-ITFT
Ms type: MS2
Ion mode: POSITIVE
Ionization: ESI
Collision energy: 40
Column name: Acquity CSHC18
Retention time: 1.463 min
Base peak: 154.04987
Precursor m/z: 154.04987
Precursor type: [M+H]+
m/z	relative intensity
51.0235	9
53.0027	4
53.0392	448
54.0344	76
63.0234	24
80.0499	999
89.5702	4
106.3841	4
108.0446	24
158.328	4
