Mass spectrum: AMINOISOBUTANOATE; LC-ESI-QTOF; MS2; CE: 20;  [M+H]+
Name: AMINOISOBUTANOATE
Class: NA
Formula: C4H9NO2
Exact mass: 103.0633
SMILES: CC(CN)C(O)=O
InChI: InChI=1S/C4H9NO2/c1-3(2-5)4(6)7/h3H,2,5H2,1H3,(H,6,7)
Instrument: Agilent 6530Â Q-TOF LC/MS
Instrument type: LC-ESI-QTOF
Ms type: MS2
Ion mode: POSITIVE
Ionization: ESI
Collision energy: 20
Column name: NA
Retention time: 0.200 min
Base peak: 104.07071
Precursor m/z: 104.07071
Precursor type: [M+H]+
Precursor intensity: 75.5
m/z	relative intensity
41.0411	405
42.464	9
44.8043	46
45.03	276
45.0671	32
45.3461	55
53.122	110
56.576	50
57.0347	391
57.6915	151
57.7219	36
58.0637	999
58.1226	27
58.8196	46
60.0786	851
60.1931	23
60.2234	41
60.2813	18
60.3691	87
60.4375	18
60.7684	50
62.9274	105
63.1951	128
64.3463	41
64.9063	36
65.1462	18
70.4485	23
75.6788	32
76.519	119
76.7167	32
76.733	18
81.2799	23
83.3791	92
88.2598	41
89.1559	128
90.2243	36
90.6524	124
92.1541	50
92.205	36
98.6247	18
100.3167	36
104.1048	363
104.1455	82
104.3551	230
104.4254	13
104.6427	82
104.7741	36
105.05	32
