Mass spectrum: 4-IMIDAZOLEACETATE; LC-ESI-QTOF; MS2; CE: 40;  [M+H]+
Name: 4-IMIDAZOLEACETATE
Class: NA
Formula: C5H6N2O2
Exact mass: 126.04293
SMILES: OC(=O)CC1=CN=CN1
InChI: InChI=1S/C5H6N2O2/c8-5(9)1-4-2-6-3-7-4/h2-3H,1H2,(H,6,7)(H,8,9)
Instrument: Agilent 6530Â Q-TOF LC/MS
Instrument type: LC-ESI-QTOF
Ms type: MS2
Ion mode: POSITIVE
Ionization: ESI
Collision energy: 40
Column name: NA
Retention time: 0.200 min
Base peak: 127.04850
Precursor m/z: 127.04850
Precursor type: [M+H]+
Precursor intensity: 40.5
m/z	relative intensity
52.0345	36
54.2314	273
54.6101	296
55.0599	320
81.2979	827
82.0736	999
