Mass spectrum: AICAR; LC-ESI-QFT; MS2; CE: 30eV;  [M+H]+
Name: AICAR
Class: NA
Formula: C9H15N4O8P
Exact mass: 338.06275
SMILES: NC(=O)C1=C(N)N(C=N1)[C@@H]1O[C@H](COP(O)(O)=O)[C@@H](O)[C@H]1O
InChI: InChI=1S/C9H15N4O8P/c10-7-4(8(11)16)12-2-13(7)9-6(15)5(14)3(21-9)1-20-22(17,18)19/h2-3,5-6,9,14-15H,1,10H2,(H2,11,16)(H2,17,18,19)/t3-,5-,6-,9-/m1/s1
Instrument: Q-Exactive Orbitrap, Thermo Scientfic; Ultimate 3000 HPLC, Thermo Scientfic
Instrument type: LC-ESI-QFT
Ms type: MS2
Ion mode: POSITIVE
Ionization: ESI
Collision energy: 30eV
Column name: Acquity CSHC18
Retention time: 0.653 min
Base peak: 339.0700
Precursor m/z: 339.0700
Precursor type: [M+H]+
Precursor intensity: 114
m/z	relative intensity
54.8633	1
55.0298	2
55.6455	1
62.3314	2
66.2246	2
69.0343	9
73.2775	2
82.0406	2
84.0564	10
86.5935	2
87.7119	2
89.0508	2
94.8329	2
97.0291	807
98.0325	22
98.9848	2
110.0355	852
111.0325	2
111.0389	13
114.8312	2
117.0667	2
121.1471	2
127.0619	911
128.0459	999
128.0648	21
129.0426	3
129.045	2
129.0493	29
136.0509	4
140.0458	10
152.046	34
162.0665	11
164.0457	20
169.0724	13
170.0566	16
178.0615	14
188.0465	18
205.0727	10
206.0566	290
207.06	15
224.0671	86
226.6675	2
304.0348	4
322.0445	5
339.0703	2
340.0545	10
