Mass spectrum: ADP; LC-ESI-ITFT; MS2; CE: 60;  [M+H]+
Name: ADP
Class: Nucleosides, nucleotides, and analogues; Purine nucleotides; Purine ribonucleotides
Formula: C10H15N5O10P2
Exact mass: 427.02941
SMILES: NC1=NC=NC2=C1N=CN2[C@@H]1O[C@H](COP(O)(=O)OP(O)(O)=O)[C@@H](O)[C@H]1O
InChI: InChI=1S/C10H15N5O10P2/c11-8-5-9(13-2-12-8)15(3-14-5)10-7(17)6(16)4(24-10)1-23-27(21,22)25-26(18,19)20/h2-4,6-7,10,16-17H,1H2,(H,21,22)(H2,11,12,13)(H2,18,19,20)/t4-,6-,7-,10-/m1/s1
Instrument: Thermo Scientific Q-Exactive Focus
Instrument type: LC-ESI-ITFT
Ms type: MS2
Ion mode: POSITIVE
Ionization: ESI
Collision energy: 60
Column name: Acquity CSHC18
Retention time: 2.016 min
Base peak: 428.03668
Precursor m/z: 428.03668
Precursor type: [M+H]+
m/z	relative intensity
69.0339	16
91.0576	4
94.0402	5
97.0286	79
98.9844	7
119.0353	31
136.0618	999
137.0456	69
148.0616	12
178.0721	8
