Mass spectrum: 4',5,7-Trihydroxy-8-(6-O-acetyl-3-O-beta-D-glucopyranosyl-beta-D-glucopyranosyl)flavone; LC-ESI-QTOF; MS2; CE: 20-40eV;  [M+H]+
Name: 4',5,7-Trihydroxy-8-(6-O-acetyl-3-O-beta-D-glucopyranosyl-beta-D-glucopyranosyl)flavone
Class: Flavonoid C- glycosides
Formula: C29H32O16
Exact mass: 636.1690
SMILES: CC(=O)OCC1(C(C(C(C(C2=C(C=C(C=3C(C=C(C4=CC=C(C=C4)O)OC32)=O)O)O)(O1)[H])(O)[H])(OC5(C(C(C(C(CO)(O5)[H])(O)[H])(O)[H])(O)[H])[H])[H])(O)[H])[H]
InChI: InChI=1S/C29H32O16/c1-10(31)41-9-18-22(37)28(45-29-24(39)23(38)21(36)17(8-30)44-29)25(40)27(43-18)20-14(34)6-13(33)19-15(35)7-16(42-26(19)20)11-2-4-12(32)5-3-11/h2-7,17-18,21-25,27-30,32-34,36-40H,8-9H2,1H3
Instrument: Impact II, Bruker; Dionex 3000, Thermo Scientific
Instrument type: LC-ESI-QTOF
Ms type: MS2
Ion mode: POSITIVE
Ionization: ESI
Collision energy: 20-40eV
Column name: Acquity CSHC18
Retention time: 4.756 min
Base peak: 637.1756
Precursor m/z: 637.1756
Precursor type: [M+H]+
Precursor intensity: 781840.4
m/z	relative intensity
177.0372	456
323.0723	687
475.2494	733
475.7916	999
