Mass spectrum: Eriodictyol-7-O-glucoside; LC-ESI-QTOF; MS2; CE: 50eV;  [M+H]+
Name: Eriodictyol-7-O-glucoside
Class: Flavanone
Formula: C21H22O11
Exact mass: 450.1162
SMILES: C1C(OC2=CC(=CC(=C2C1=O)O)OC3C(C(C(C(O3)CO)O)O)O)C4=CC(=C(C=C4)O)O
InChI: InChI=1S/C21H22O11/c22-7-16-18(27)19(28)20(29)21(32-16)30-9-4-12(25)17-13(26)6-14(31-15(17)5-9)8-1-2-10(23)11(24)3-8/h1-5,14,16,18-25,27-29H,6-7H2
Instrument: TIMS-TOF Pro, Bruker Daltonik; Elute UHPLC System, Bruker Daltonik
Instrument type: LC-ESI-QTOF
Ms type: MS2
Ion mode: POSITIVE
Ionization: ESI
Collision energy: 50eV
Column name: Acquity CSHC18
Retention time: 5.177 min
Base peak: 451.1201
Precursor m/z: 451.1201
Precursor type: [M+H]+
Precursor intensity: 24705.69
m/z	relative intensity
44.9459	5
81.4946	6
111.0019	5
135.0417	5
145.0286	7
153.0174	105
154.0219	10
156.6261	1
162.6416	4
163.0081	18
163.0385	56
164.0388	13
175.0256	5
179.0174	4
190.9887	3
202.0553	4
288.8029	1
289.0456	14
289.0698	999
289.5502	7
289.9661	8
290.0715	84
291.0749	4
291.8875	4
297.0578	4
323.2962	1
415.0486	2
