Mass spectrum: Adenosine; LC-ESI-QTOF; MS2; CE: 15.00;  [M-H]-
Name: Adenosine
Class: NA
Formula: C10H13N5O4
Exact mass: 267.0968
SMILES: C1=NC(=C2C(=N1)N(C=N2)C3C(C(C(O3)CO)O)O)N
InChI: InChI=1S/C10H13N5O4/c11-8-5-9(13-2-12-8)15(3-14-5)10-7(18)6(17)4(1-16)19-10/h2-4,6-7,10,16-18H,1H2,(H2,11,12,13)
Instrument: Bruker MicrOTOF-Q
Instrument type: LC-ESI-QTOF
Ms type: MS2
Ion mode: NEGATIVE
Ionization: ESI
Collision energy: 15.00
Column name: Acquity CSHC18
Retention time: NA
Base peak: 266.0895
Precursor m/z: 266.0895
Precursor type: [M-H]-
m/z	relative intensity
52.4531	46
56.0945	51
58.8037	28
67.5481	38
68.2789	46
72.5978	47
80.875	38
92.0214	61
101.2843	39
101.5752	32
107.0384	122
111.2973	43
111.9418	24
113.23	23
116.8707	29
117.6671	24
122.1525	48
133.8556	32
134.0467	999
134.2425	36
135.0459	68
137.1243	36
141.791	27
179.6435	24
194.0813	28
200.0659	39
219.1925	29
246.6359	27
250.5068	34
251.2611	24
280.6206	23
286.0445	47
292.1304	24
341.18	26
342.4047	36
342.598	32
381.5362	29
411.0192	42
420.5373	26
468.2525	23
482.9972	23
509.4194	26
569.2762	38
596.1099	24
630.4651	23
648.5037	40
671.4709	32
686.5318	41
707.4463	40
736.9615	38
740.7662	23
759.8338	29
849.0641	24
853.2664	29
861.0755	42
878.757	33
906.2114	23
980.5228	36
