Mass spectrum: 8-methylthiooctylglucosinolate; LC-ESI-QTOF; MS2; CE: 22.36;  [M+H]+
Name: 8-methylthiooctylglucosinolate
Class: NA
Formula: C16H31NO6S2
Exact mass: 397.1593
SMILES: CSCCCCCCCCC(=NO)SC1C(C(C(C(O1)CO)O)O)O
InChI: InChI=1S/C16H31NO6S2/c1-24-9-7-5-3-2-4-6-8-12(17-22)25-16-15(21)14(20)13(19)11(10-18)23-16/h11,13-16,18-22H,2-10H2,1H3
Instrument: Bruker MicrOTOF-Q
Instrument type: LC-ESI-QTOF
Ms type: MS2
Ion mode: POSITIVE
Ionization: ESI
Collision energy: 22.36
Column name: Acquity CSHC18
Retention time: NA
Base peak: 398.1666
Precursor m/z: 398.1666
Precursor type: [M+H]+
m/z	relative intensity
138.1269	194
155.0873	247
170.1013	364
188.1102	382
236.1113	389
352.1648	640
354.2138	999
