Mass spectrum: Luteolin 7-glucoside; LC-ESI-QTOF; MS2; CE: 50eV;  [M-H]-
Name: Luteolin 7-glucoside
Class: Flavone
Formula: C21H20O11
Exact mass: 448.1006
SMILES: C1=CC(=C(C=C1C2=CC(=O)C3=C(C=C(C=C3O2)OC4C(C(C(C(O4)CO)O)O)O)O)O)O
InChI: InChI=1S/C21H20O11/c22-7-16-18(27)19(28)20(29)21(32-16)30-9-4-12(25)17-13(26)6-14(31-15(17)5-9)8-1-2-10(23)11(24)3-8/h1-6,16,18-25,27-29H,7H2
Instrument: TIMS-TOF Pro, Bruker Daltonik; Elute UHPLC System, Bruker Daltonik
Instrument type: LC-ESI-QTOF
Ms type: MS2
Ion mode: NEGATIVE
Ionization: ESI
Collision energy: 50eV
Column name: Acquity CSHC18
Retention time: 5.214 min
Base peak: 447.0901
Precursor m/z: 447.0901
Precursor type: [M-H]-
Precursor intensity: 163613.7
m/z	relative intensity
59.0326	1
65.0009	2
82.0292	1
89.5574	1
96.019	1
106.9707	1
121.0278	3
124.0192	1
133.0269	18
134.0326	3
135.0422	2
138.637	1
143.1699	1
146.0367	1
146.4409	2
148.0155	1
149.0223	4
149.994	2
151.0037	12
153.0197	1
154.5527	1
163.2354	1
167.3708	1
171.0421	1
183.045	1
184.3229	1
185.7041	2
200.0624	1
213.7549	1
216.0038	1
217.7918	2
219.9846	2
222.2518	1
223.3321	1
224.9586	1
227.0397	2
228.8656	2
232.3951	1
235.4626	1
237.4216	1
238.5649	1
243.0252	1
244.9339	1
246.9268	2
247.9363	1
250.263	1
254.2473	1
256.0355	1
257.5666	1
271.0983	1
284.0295	22
284.9098	1
285.0109	73
285.1653	1
285.5169	1
286.0393	14
286.4048	1
287.0349	1
327.0473	3
418.2682	1
446.1038	1
446.5902	1
446.7779	1
446.8701	1
446.9701	1
447.0868	999
447.3589	2
447.5303	3
