Mass spectrum: N-(3-Hydroxypropyl)-phthalimide; LC-ESI-QTOF; MS2; CE: 0.00;  [M+H]+
Name: N-(3-Hydroxypropyl)-phthalimide
Class: NA
Formula: C11H11NO3
Exact mass: 205.0739
SMILES: C1=CC=C2C(=C1)C(=O)N(C2=O)CCCO
InChI: InChI=1S/C11H11NO3/c13-7-3-6-12-10(14)8-4-1-2-5-9(8)11(12)15/h1-2,4-5,13H,3,6-7H2
Instrument: Bruker MicrOTOF-Q
Instrument type: LC-ESI-QTOF
Ms type: MS2
Ion mode: POSITIVE
Ionization: ESI
Collision energy: 0.00
Column name: Acquity CSHC18
Retention time: NA
Base peak: 206.0812
Precursor m/z: 206.0812
Precursor type: [M+H]+
m/z	relative intensity
130.0275	30
131.0316	2
133.0277	16
134.0299	1
142.0669	1
143.0509	2
145.0641	1
147.0441	1
148.0399	21
149.0411	2
159.9568	3
160.0397	999
160.1972	1
160.276	2
161.0439	93
162.0505	2
170.06	3
188.0719	246
189.0753	28
206.0836	1
