Mass spectrum: R5P; LC-ESI-QTOF; MS2; CE: 10;  [M-H]-
Name: R5P
Class: NA
Formula: C5H11O8P
Exact mass: 230.01915
SMILES: C(C(C(C(C=O)O)O)O)OP(=O)(O)O
InChI: InChI=1S/C5H11O8P/c6-1-3(7)5(9)4(8)2-13-14(10,11)12/h1,3-5,7-9H,2H2,(H2,10,11,12)
Instrument: impact II
Instrument type: LC-ESI-QTOF
Ms type: MS2
Ion mode: NEGATIVE
Ionization: ESI
Collision energy: 10
Column name: Acquity CSHC18
Retention time: 1.842 min
Base peak: 229.01190
Precursor m/z: 229.01190
Precursor type: [M-H]-
m/z	relative intensity
78.9594	297
96.9697	999
138.9804	295
229.0118	220
