Mass spectrum: S4:24(2,5,5,12); LC-ESI-QTOF; MS2; CE: -10,-35,-60V;  [M+FA-H]-
Name: S4:24(2,5,5,12)
Class: acyl sugar
Formula: C36H62O15
Exact mass: 734.4089
SMILES: CC(O[C@@H]2[C@H](O[C@]1(O[C@@H](CO)[C@H](O)[C@H]1OC(CCCCCCCCCCC)=O)CO)O[C@@H](CO)[C@@H]([C@H]2OC(C(C)CC)=O)OC(CC(C)C)=O)=O
InChI: InChI=1S/C36H62O15/c1-7-9-10-11-12-13-14-15-16-17-27(41)48-33-29(43)25(19-37)50-36(33,21-39)51-35-32(45-24(6)40)31(49-34(44)23(5)8-2)30(26(20-38)46-35)47-28(42)18-22(3)4/h22-23,25-26,29-33,35,37-39,43H,7-21H2,1-6H3/t23?,25-,26-,29-,30-,31+,32-,33+,35-,36+/m0/s1
Instrument: TripleToF5600, Sciex; Acquity, Waters
Instrument type: LC-ESI-QTOF
Ms type: MS2
Ion mode: NEGATIVE
Ionization: ESI
Collision energy: -10,-35,-60V
Column name: Acquity CSHC18
Retention time: 16.592 min
Base peak: 779.4088
Precursor m/z: 779.4088
Precursor type: [M+FA-H]-
Precursor intensity: 468947
m/z	relative intensity
101.0622	73
113.03	5
199.1603	72
199.1763	72
277.2192	4
279.2301	5
323.1033	13
341.1182	7
407.1594	15
425.1664	25
509.229	92
510.2266	18
513.3053	3
551.243	71
552.2278	17
691.4048	55
692.3962	20
733.402	25
766.5359	2
767.5563	5
769.3839	614
770.3945	334
771.347	454
771.3862	454
772.351	173
772.3864	173
776.3502	311
776.421	293
776.9442	18
777.4047	145
778.389	43
779.4252	986
779.4961	743
780.4148	999
780.4305	997
781.4247	522
