Mass spectrum: Apigenin 7-rutinoside-4'-glucoside; LC-ESI-QTOF; MS2; CE: 20-40eV;  [M+H]+
Name: Apigenin 7-rutinoside-4'-glucoside
Class: flavonoid
Formula: C33H40O19
Exact mass: 740.2164
SMILES: CC1(C(C(C(C(OCC2(C(C(C(C(OC3=CC(=C4C(C=C(C5=CC=C(C=C5)OC6(C(C(C(C(CO)(O6)[H])(O)[H])(O)[H])(O)[H])[H])OC4=C3)=O)O)(O2)[H])(O)[H])(O)[H])(O)[H])[H])(O1)[H])(O)[H])(O)[H])(O)[H])[H]
InChI: InChI=1S/C33H40O19/c1-11-22(37)25(40)28(43)31(47-11)46-10-20-24(39)27(42)30(45)33(52-20)49-14-6-15(35)21-16(36)8-17(50-18(21)7-14)12-2-4-13(5-3-12)48-32-29(44)26(41)23(38)19(9-34)51-32/h2-8,11,19-20,22-35,37-45H,9-10H2,1H3
Instrument: Impact II, Bruker; Dionex 3000, Thermo Scientific
Instrument type: LC-ESI-QTOF
Ms type: MS2
Ion mode: POSITIVE
Ionization: ESI
Collision energy: 20-40eV
Column name: Acquity CSHC18
Retention time: 4.850 min
Base peak: 741.2228
Precursor m/z: 741.2228
Precursor type: [M+H]+
Precursor intensity: 695.5
m/z	relative intensity
147.0617	106
217.1077	94
271.0593	999
272.0628	239
433.1152	421
505.4775	88
579.1696	465
580.1722	137
