Mass spectrum: Prostaglandin E2 p-acetamidophenyl ester; ESI-TOF; MS2; CE: 0.6458333;  [M+H]+
Name: Prostaglandin E2 p-acetamidophenyl ester
Class: NA
Formula: C28H39NO6
Exact mass: 485.27774
SMILES: O=C1[C@H](C/C=C\CCCC(OC2=CC=C(NC(C)=O)C=C2)=O)[C@@H](/C=C/[C@@H](O)CCCCC)[C@H](O)C1
InChI: InChI=1S/C28H39NO6/c1-3-4-7-10-22(31)15-18-25-24(26(32)19-27(25)33)11-8-5-6-9-12-28(34)35-23-16-13-21(14-17-23)29-20(2)30/h5,8,13-18,22,24-25,27,31,33H,3-4,6-7,9-12,19H2,1-2H3,(H,29,30)/b8-5-,18-15+/t22-,24+,25+,27+/m0/s1
Instrument: waters xevo g2 TOF
Instrument type: ESI-TOF
Ms type: MS2
Ion mode: POSITIVE
Ionization: ESI
Collision energy: 0.6458333
Column name: Acquity CSHC18
Retention time: 3.918 min
Base peak: 486.28574
Precursor m/z: 486.28574
Precursor type: [M+H]+
m/z	relative intensity
79.0541	7
81.0694	40
85.0649	5
91.0549	48
93.071	43
95.0867	30
99.0815	12
105.0712	61
107.0864	28
110.0614	113
117.0704	51
121.0657	24
123.0814	22
129.0707	37
131.0868	80
133.1024	54
134.0621	59
135.0804	15
137.0613	7
141.0705	18
143.0864	40
145.1021	62
147.0809	54
149.0976	36
151.1128	23
152.0718	999
153.0745	70
154.078	7
155.087	50
159.0821	50
161.1336	62
163.1487	27
167.0901	11
169.1014	77
171.1177	52
173.1326	43
174.1382	8
175.1131	26
177.1299	6
181.1017	19
183.1172	59
187.1494	59
188.151	8
189.0921	51
190.0184	65
193.1005	16
195.1152	10
197.1325	66
199.147	8
201.128	70
203.143	64
205.1592	8
207.1045	42
213.165	6
215.1433	198
216.1471	17
217.1575	14
225.1285	20
226.1293	3
227.1809	49
229.1947	41
239.181	24
244.6094	82
245.1919	65
247.2049	37
253.1947	48
253.6152	71
254.1165	10
255.175	37
257.191	35
263.1809	35
264.1832	4
271.2045	59
273.1851	57
274.1903	6
281.1896	204
282.1914	38
289.2156	14
299.2009	581
300.203	129
301.2074	12
317.2117	267
318.2152	50
355.1574	10
371.1318	46
396.2522	18
398.2686	34
408.2528	46
424.252	17
432.2509	19
433.259	7
450.2651	230
451.2676	64
452.2718	8
467.1374	20
468.2752	310
469.2794	94
