Mass spectrum: SAH; LC-ESI-QTOF; MS2; CE: -10, -35, -60V;  [M-H]-
Name: SAH
Class: NA
Formula: C14H20N6O5S
Exact mass: 384.1216
SMILES: C1=NC(=C2C(=N1)N(C=N2)C3C(C(C(O3)CSCCC(C(=O)[O-])[NH3+])O)O)N
InChI: InChI=1S/C14H20N6O5S/c15-6(14(23)24)1-2-26-3-7-9(21)10(22)13(25-7)20-5-19-8-11(16)17-4-18-12(8)20/h4-7,9-10,13,21-22H,1-3,15H2,(H,23,24)(H2,16,17,18)
Instrument: TripleToF 5600; Sciex
Instrument type: LC-ESI-QTOF
Ms type: MS2
Ion mode: NEGATIVE
Ionization: ESI
Collision energy: -10, -35, -60V
Column name: Acquity CSHC18
Retention time: 2.443 min
Base peak: 383.1172
Precursor m/z: 383.1172
Precursor type: [M-H]-
Precursor intensity: 87924.81
m/z	relative intensity
107.0342	43
134.0404	536
134.047	536
135.0507	53
176.0536	13
188.0423	24
248.0673	28
381.914	5
383.1206	999
