Mass spectrum: 6-Hydroxysphingosine; LC-ESI-QTOF; MS2; CE: 20-40eV;  [M+H]+
Name: 6-Hydroxysphingosine
Class: Ceramides derivatives
Formula: C18H37NO3
Exact mass: 315.2773
SMILES: CCCCCCCCCCCCC(C(=C(C(C(CO)(N)[H])(O)[H])[H])[H])(O)[H]
InChI: InChI=1S/C18H37NO3/c1-2-3-4-5-6-7-8-9-10-11-12-16(21)13-14-18(22)17(19)15-20/h13-14,16-18,20-22H,2-12,15,19H2,1H3
Instrument: Impact II, Bruker; Dionex 3000, Thermo Scientific
Instrument type: LC-ESI-QTOF
Ms type: MS2
Ion mode: POSITIVE
Ionization: ESI
Collision energy: 20-40eV
Column name: Acquity CSHC18
Retention time: 16.155 min
Base peak: 316.2849
Precursor m/z: 316.2849
Precursor type: [M+H]+
Precursor intensity: 7489.5
m/z	relative intensity
95.0689	87
95.0838	315
96.0875	106
97.0283	88
100.9901	82
106.0723	96
107.0848	196
109.0638	103
109.1001	533
110.0954	88
111.1167	143
119.0852	96
121.1001	83
122.1083	82
123.0805	90
124.1155	93
133.1034	120
134.9857	87
137.0956	128
138.0995	95
140.0675	82
151.0773	83
166.0764	88
213.163	109
233.2262	127
237.2452	107
262.2486	88
268.2635	212
269.2622	90
280.2628	936
281.2637	178
282.2703	85
298.2731	887
299.2746	203
316.2835	999
