Mass spectrum: ISOCITRATE; LC-ESI-QFT; MS2; CE: 30eV;  [M+H]+
Name: ISOCITRATE
Class: NA
Formula: C6H8O7
Exact mass: 192.02700
SMILES: OC(C(CC(O)=O)C(O)=O)C(O)=O
InChI: InChI=1S/C6H8O7/c7-3(8)1-2(5(10)11)4(9)6(12)13/h2,4,9H,1H2,(H,7,8)(H,10,11)(H,12,13)
Instrument: Q-Exactive Orbitrap, Thermo Scientfic; Ultimate 3000 HPLC, Thermo Scientfic
Instrument type: LC-ESI-QFT
Ms type: MS2
Ion mode: POSITIVE
Ionization: ESI
Collision energy: 30eV
Column name: Acquity CSHC18
Retention time: 0.642 min
Base peak: 193.0343
Precursor m/z: 193.0343
Precursor type: [M+H]+
Precursor intensity: 187
m/z	relative intensity
52.4812	6
52.5548	5
52.942	6
53.7576	5
55.0187	8
57.0342	6
58.0659	8
61.541	5
62.7739	5
65.8307	7
65.9888	6
69.2376	8
70.0674	6
74.5619	7
82.8888	6
83.0135	159
84.082	7
94.08	7
96.5607	7
101.0239	999
112.5636	6
124.8056	7
129.0186	412
131.5615	7
134.5286	7
139.0026	8
142.9787	8
147.0288	10
157.0135	259
159.4525	7
164.9846	32
170.9732	16
175.0241	101
194.1181	32
