Mass spectrum: Triethanolamine; LC-ESI-ITFT; MS2; CE: 100;  [M+H]+
Name: Triethanolamine
Class: Organonitrogen compounds; Amines; Alkanolamines
Formula: C6H15NO3
Exact mass: 149.10519
SMILES: OCCN(CCO)CCO
InChI: InChI=1S/C6H15NO3/c8-4-1-7(2-5-9)3-6-10/h8-10H,1-6H2
Instrument: Thermo Scientific Q-Exactive Focus
Instrument type: LC-ESI-ITFT
Ms type: MS2
Ion mode: POSITIVE
Ionization: ESI
Collision energy: 100
Column name: Acquity CSHC18
Retention time: 2.179 min
Base peak: 150.11247
Precursor m/z: 150.11247
Precursor type: [M+H]+
m/z	relative intensity
55.3932	731
88.4736	801
92.5225	999
98.2388	796
99.5931	746
102.0224	824
113.6581	778
128.5052	769
161.8041	790
166.0603	788
