Mass spectrum: Apigenin-7-O-glucoside; LC-ESI-QTOF; MS2; CE: 24.98;  [M+H]+
Name: Apigenin-7-O-glucoside
Class: NA
Formula: C21H20O10
Exact mass: 432.1056
SMILES: C1=CC(=CC=C1C2=CC(=O)C3=C(O2)C(=C(C=C3O)O)C4C(C(C(C(O4)CO)O)O)O)O
InChI: InChI=1S/C21H20O10/c22-7-14-17(27)18(28)19(29)21(31-14)16-11(25)5-10(24)15-12(26)6-13(30-20(15)16)8-1-3-9(23)4-2-8/h1-6,14,17-19,21-25,27-29H,7H2
Instrument: Bruker MicrOTOF-Q
Instrument type: LC-ESI-QTOF
Ms type: MS2
Ion mode: POSITIVE
Ionization: ESI
Collision energy: 24.98
Column name: Acquity CSHC18
Retention time: NA
Base peak: 433.1129
Precursor m/z: 433.1129
Precursor type: [M+H]+
m/z	relative intensity
271.0622	21
272.0643	180
273.066	999
