Mass spectrum: Haageanolide; LC-ESI-ITFT; MS2; CE: 50eV;  [M+H]+
Name: Haageanolide
Class: Sesquiterpenelactone; Germacrolide
Formula: C15H20O3
Exact mass: 248.1412
SMILES: C1=C([C@H](C[C@@H]2[C@@H](C=C(CC1)C)OC(C2=C)=O)O)C
InChI: InChI=1S/C15H20O3/c1-9-5-4-6-10(2)13(16)8-12-11(3)15(17)18-14(12)7-9/h6-7,12-14,16H,3-5,8H2,1-2H3/t12-,13-,14+/m0/s1
Instrument: Q Exactive Plus, ThermoFisher Scientific
Instrument type: LC-ESI-ITFT
Ms type: MS2
Ion mode: POSITIVE
Ionization: ESI
Collision energy: 50eV
Column name: Acquity CSHC18
Retention time: 9.151 min
Base peak: 249.1483
Precursor m/z: 249.1483
Precursor type: [M+H]+
Precursor intensity: 201932700
m/z	relative intensity
52.7375	31
69.0345	161
69.7422	61
69.7455	58
76.0335	35
81.0704	72
93.0705	146
95.086	58
96.9265	42
105.0704	47
107.0857	84
119.0863	134
120.4413	41
121.0655	51
121.1009	268
131.0866	59
133.101	66
135.1175	51
143.0865	189
145.101	219
147.0805	58
157.102	149
159.1177	256
161.0968	65
161.1317	38
164.1195	70
175.0745	81
175.1493	71
185.1329	428
189.1272	78
195.1174	52
203.1433	351
213.1271	186
231.1386	999
249.1486	623
