Mass spectrum: Chlorogenic acid; LC-ESI-QTOF; MS2; CE: 50eV;  [M-H]-
Name: Chlorogenic acid
Class: quinic acid derivative
Formula: C16H18O9
Exact mass: 354.0951
SMILES: C1C(C(C(CC1(C(=O)O)O)OC(=O)C=CC2=CC(=C(C=C2)O)O)O)O
InChI: InChI=1S/C16H18O9/c17-9-3-1-8(5-10(9)18)2-4-13(20)25-12-7-16(24,15(22)23)6-11(19)14(12)21/h1-5,11-12,14,17-19,21,24H,6-7H2,(H,22,23)
Instrument: TIMS-TOF Pro, Bruker Daltonik; Elute UHPLC System, Bruker Daltonik
Instrument type: LC-ESI-QTOF
Ms type: MS2
Ion mode: NEGATIVE
Ionization: ESI
Collision energy: 50eV
Column name: Acquity CSHC18
Retention time: 4.132 min
Base peak: 353.0806
Precursor m/z: 353.0806
Precursor type: [M-H]-
Precursor intensity: 5911.33
m/z	relative intensity
43.0177	7
44.9965	32
56.2136	11
59.0127	52
60.0174	4
69.0021	5
71.0113	12
72.3314	6
81.0334	13
83.047	11
85.0272	272
86.0304	10
93.0322	87
94.034	6
97.0283	16
99.0422	22
101.0229	5
102.844	7
107.014	4
109.0264	9
111.0426	24
112.0467	8
121.0878	8
127.0374	33
129.0517	10
133.0279	20
134.0336	11
135.0431	38
135.7366	4
137.0459	7
145.0541	5
161.0218	10
173.0407	14
179.032	16
191.0042	4
191.0522	999
191.3421	4
191.4665	4
191.6171	6
191.6651	4
192.0582	61
193.0581	8
353.0776	8
