Mass spectrum: THYROTROPIN RELEASING HORMONE; LC-ESI-QFT; MS2; CE: 30eV;  [M-H]-
Name: THYROTROPIN RELEASING HORMONE
Class: NA
Formula: C16H22N6O4
Exact mass: 362.17025
SMILES: C1CC(N(C1)C(=O)C(CC2=CN=CN2)NC(=O)C3CCC(=O)N3)C(=O)N
InChI: InChI=1S/C16H22N6O4/c17-14(24)12-2-1-5-22(12)16(26)11(6-9-7-18-8-19-9)21-15(25)10-3-4-13(23)20-10/h7-8,10-12H,1-6H2,(H2,17,24)(H,18,19)(H,20,23)(H,21,25)
Instrument: Q-Exactive Orbitrap, Thermo Scientfic; Ultimate 3000 HPLC, Thermo Scientfic
Instrument type: LC-ESI-QFT
Ms type: MS2
Ion mode: NEGATIVE
Ionization: ESI
Collision energy: 30eV
Column name: Acquity CSHC18
Retention time: 1.097 min
Base peak: 361.1630
Precursor m/z: 361.1630
Precursor type: [M-H]-
Precursor intensity: 157
m/z	relative intensity
109.0487	117
113.0683	118
133.0554	196
204.0866	680
264.1088	999
