Mass spectrum: MESO-TARTRATE; LC-ESI-QTOF; MS2; CE: 10;  [M-H]-
Name: MESO-TARTRATE
Class: NA
Formula: C4H6O6
Exact mass: 150.01644
SMILES: C(C(C(=O)O)O)(C(=O)O)O
InChI: InChI=1S/C4H6O6/c5-1(3(7)8)2(6)4(9)10/h1-2,5-6H,(H,7,8)(H,9,10)
Instrument: Agilent 6530Â Q-TOF LC/MS
Instrument type: LC-ESI-QTOF
Ms type: MS2
Ion mode: NEGATIVE
Ionization: ESI
Collision energy: 10
Column name: NA
Retention time: 0.200 min
Base peak: 149.00865
Precursor m/z: 149.00865
Precursor type: [M-H]-
Precursor intensity: 152
m/z	relative intensity
41.0087	165
43.0289	172
45.0052	202
57.0022	232
59.0266	285
73.008	297
75.0109	320
87.0265	580
103.0074	845
105.0221	884
131.0004	992
149.034	999
