Mass spectrum: Caffeine; LC-ESI-ITFT; MS2; CE: 35eV;  [M+H]+
Name: Caffeine
Class: Alkaloïd
Formula: C8H10N4O2
Exact mass: 194.0804
SMILES: CN1C=NC2=C1C(=O)N(C(=O)N2C)C
InChI: InChI=1S/C8H10N4O2/c1-10-4-9-6-5(10)7(13)12(3)8(14)11(6)2/h4H,1-3H3
Instrument: LTQ Orbitrap XL, Thermo Scientfic; Dionex Ultimate 300
Instrument type: LC-ESI-ITFT
Ms type: MS2
Ion mode: POSITIVE
Ionization: ESI
Collision energy: 35eV
Column name: Alltima C18 150*2.1 5µm, GRACE ALLTECH
Retention time: 30.095 min
Base peak: 195.0868
Precursor m/z: 195.0868
Precursor type: [M+H]+
m/z	relative intensity
68.8906	1
110.0476	12
137.9687	486
150.9012	1
163.0548	1
195.0133	999
