Mass spectrum: Abietic acid; LC-ESI-QTOF; MS2; CE: 15.09;  [M-H]-
Name: Abietic acid
Class: NA
Formula: C20H30O2
Exact mass: 302.2246
SMILES: CC(C)C1=CC2=CCC3C(C2CC1)(CCCC3(C)C(=O)O)C
InChI: InChI=1S/C20H30O2/c1-13(2)14-6-8-16-15(12-14)7-9-17-19(16,3)10-5-11-20(17,4)18(21)22/h7,12-13,16-17H,5-6,8-11H2,1-4H3,(H,21,22)
Instrument: Bruker MicrOTOF-Q
Instrument type: LC-ESI-QTOF
Ms type: MS2
Ion mode: NEGATIVE
Ionization: ESI
Collision energy: 15.09
Column name: Acquity CSHC18
Retention time: NA
Base peak: 301.2173
Precursor m/z: 301.2173
Precursor type: [M-H]-
m/z	relative intensity
301.2155	999
302.2208	253
