Mass spectrum: Azelaic acid; LC-ESI-ITFT; MS2; CE: 60;  [M-H]-
Name: Azelaic acid
Class: Lipids and lipid-like molecules; Fatty Acyls; Fatty acids and conjugates
Formula: C9H16O4
Exact mass: 188.10486
SMILES: OC(=O)CCCCCCCC(O)=O
InChI: InChI=1S/C9H16O4/c10-8(11)6-4-2-1-3-5-7-9(12)13/h1-7H2,(H,10,11)(H,12,13)
Instrument: Thermo Scientific Q-Exactive Focus
Instrument type: LC-ESI-ITFT
Ms type: MS2
Ion mode: NEGATIVE
Ionization: ESI
Collision energy: 60
Column name: Acquity CSHC18
Retention time: 2.026 min
Base peak: 187.09758
Precursor m/z: 187.09758
Precursor type: [M-H]-
m/z	relative intensity
86.9976	877
119.4329	799
129.9589	861
137.7622	999
141.6421	803
143.4811	816
155.34	957
162.9444	983
191.6541	779
208.8975	778
