Mass spectrum: D-Arabitol; LC-ESI-ITFT; MS2; CE: 10;  [M-H]-
Name: D-Arabitol
Class: Organic oxygen compounds; Organooxygen compounds; Carbohydrates and carbohydrate conjugates
Formula: C5H12O5
Exact mass: 152.06847
SMILES: OC[C@@H](O)C(O)[C@H](O)CO
InChI: InChI=1S/C5H12O5/c6-1-3(8)5(10)4(9)2-7/h3-10H,1-2H2/t3-,4-/m1/s1
Instrument: Thermo Scientific Q-Exactive Focus
Instrument type: LC-ESI-ITFT
Ms type: MS2
Ion mode: NEGATIVE
Ionization: ESI
Collision energy: 10
Column name: Acquity CSHC18
Retention time: 0.361 min
Base peak: 151.06120
Precursor m/z: 151.06120
Precursor type: [M-H]-
m/z	relative intensity
59.0126	594
71.0126	849
73.0282	121
85.0282	100
89.0232	999
101.0232	849
119.0338	75
131.0338	67
133.0494	59
151.0601	769
