Mass spectrum: (S)-Coclaurine HCl; ESI-QTOF; MS2; CE: -10, -35, -60;  [M-H]-
Name: (S)-Coclaurine HCl
Class: Benzylisoquinoline alkaloid
Formula: C17H19NO3
Exact mass: 285.1365
SMILES: COC1=C(C=C2C(NCCC2=C1)CC3=CC=C(C=C3)O)O
InChI: InChI=1S/C17H19NO3/c1-21-17-9-12-6-7-18-15(14(12)10-16(17)20)8-11-2-4-13(19)5-3-11/h2-5,9-10,15,18-20H,6-8H2,1H3
Instrument: AB Sciex TripleToF 5500
Instrument type: ESI-QTOF
Ms type: MS2
Ion mode: NEGATIVE
Ionization: ESI
Collision energy: -10, -35, -60
Column name: Acquity CSHC18
Retention time: 3.996 min
Base peak: 284.1319
Precursor m/z: 284.1319
Precursor type: [M-H]-
Precursor intensity: 3861.75
m/z	relative intensity
280.9128	14
284.1302	999
