Mass spectrum: Gibberellin A4; LC-ESI-QTOF; MS2; CE: 50eV;  [M-H]-
Name: Gibberellin A4
Class: Diterpene
Formula: C19H24O5
Exact mass: 332.1624
SMILES: CC12C(CCC3(C1C(C45C3CCC(C4)C(=C)C5)C(=O)O)OC2=O)O
InChI: InChI=1S/C19H24O5/c1-9-7-18-8-10(9)3-4-11(18)19-6-5-12(20)17(2,16(23)24-19)14(19)13(18)15(21)22/h10-14,20H,1,3-8H2,2H3,(H,21,22)
Instrument: TIMS-TOF Pro, Bruker Daltonik; Elute UHPLC System, Bruker Daltonik
Instrument type: LC-ESI-QTOF
Ms type: MS2
Ion mode: NEGATIVE
Ionization: ESI
Collision energy: 50eV
Column name: Acquity CSHC18
Retention time: 8.146 min
Base peak: 331.1481
Precursor m/z: 331.1481
Precursor type: [M-H]-
Precursor intensity: 112650.9
m/z	relative intensity
15.3159	8
35.1198	5
41.0024	36
43.0176	68
57.0323	17
67.7363	6
68.997	7
73.0272	21
99.044	5
109.0267	7
119.0832	9
120.7	8
120.7918	5
121.0658	7
129.0685	5
137.9859	5
145.0625	8
147.3255	5
157.0993	18
159.1156	7
160.5069	5
161.351	7
162.2535	6
162.5087	7
169.1007	12
173.0976	6
174.9259	5
175.1095	12
176.9378	6
183.1214	7
187.1439	7
194.301	6
213.1266	20
214.1279	11
223.143	9
225.153	105
226.1632	31
231.1342	7
241.1526	8
243.1707	311
244.1782	20
251.1385	6
257.1131	98
258.1178	13
269.1352	49
270.152	10
276.7392	6
285.1431	8
287.1595	157
288.1624	28
313.1398	39
314.1432	19
330.1188	7
331.136	999
331.3633	11
331.4437	6
331.5441	5
