Mass spectrum: Sphinganine; LC-ESI-QTOF; MS2; CE: 20-40eV;  [M+H]+
Name: Sphinganine
Class: Sphingolipid
Formula: C18H39NO2
Exact mass: 301.2981
SMILES: CCCCCCCCCCCCCCCC(C(CO)(N)[H])(O)[H]
InChI: InChI=1S/C18H39NO2/c1-2-3-4-5-6-7-8-9-10-11-12-13-14-15-18(21)17(19)16-20/h17-18,20-21H,2-16,19H2,1H3
Instrument: Impact II, Bruker; Dionex 3000, Thermo Scientific
Instrument type: LC-ESI-QTOF
Ms type: MS2
Ion mode: POSITIVE
Ionization: ESI
Collision energy: 20-40eV
Column name: Acquity CSHC18
Retention time: 17.519 min
Base peak: 302.3051
Precursor m/z: 302.3051
Precursor type: [M+H]+
Precursor intensity: 12950
m/z	relative intensity
95.0833	114
97.9916	73
105.0705	75
111.0764	68
113.0585	72
212.2366	999
213.241	77
284.2954	386
302.3053	76
