Mass spectrum: 6-Phosphogluconic acid; LC-ESI-ITFT; MS2; CE: 100;  [M-H]-
Name: 6-Phosphogluconic acid
Class: Organic oxygen compounds; Organooxygen compounds; Carbohydrates and carbohydrate conjugates
Formula: C6H13O10P
Exact mass: 276.02463
SMILES: O[C@H](COP(O)(O)=O)[C@@H](O)[C@H](O)[C@@H](O)C(O)=O
InChI: InChI=1S/C6H13O10P/c7-2(1-16-17(13,14)15)3(8)4(9)5(10)6(11)12/h2-5,7-10H,1H2,(H,11,12)(H2,13,14,15)/t2-,3-,4+,5-/m1/s1
Instrument: Thermo Scientific Q-Exactive Focus
Instrument type: LC-ESI-ITFT
Ms type: MS2
Ion mode: NEGATIVE
Ionization: ESI
Collision energy: 100
Column name: Acquity CSHC18
Retention time: 2.587 min
Base peak: 275.01736
Precursor m/z: 275.01736
Precursor type: [M-H]-
m/z	relative intensity
62.9629	89
75.961	2
78.9578	999
79.9561	2
81.9545	1
94.9794	4
146.584	1
147.4084	1
160.2219	1
172.9381	1
