Mass spectrum: 5-Hydroxymethyl-2-furancarboxaldehyde; LC-ESI-ITFT; MS2; CE: 10;  [M-H]-
Name: 5-Hydroxymethyl-2-furancarboxaldehyde
Class: Organooxygen compounds; Carbonyl compounds; Aldehydes
Formula: C6H6O3
Exact mass: 126.03169
SMILES: OCC1=CC=C(O1)C=O
InChI: InChI=1S/C6H6O3/c7-3-5-1-2-6(4-8)9-5/h1-3,8H,4H2
Instrument: Thermo Scientific Q-Exactive Focus
Instrument type: LC-ESI-ITFT
Ms type: MS2
Ion mode: NEGATIVE
Ionization: ESI
Collision energy: 10
Column name: Acquity CSHC18
Retention time: NA
Base peak: 125.02442
Precursor m/z: 125.02442
Precursor type: [M-H]-
m/z	relative intensity
61.9872	30
69.0334	15
81.0334	69
96.9589	999
97.0283	36
124.8845	48
124.9539	20
124.9903	265
125.0233	374
125.0596	17
