Mass spectrum: L-Phenylalanine; LC-ESI-ITFT; MS2; CE: 100;  [M-H]-
Name: L-Phenylalanine
Class: Organic acids and derivatives; Carboxylic acids and derivatives; Amino acids, peptides, and analogues
Formula: C9H11NO2
Exact mass: 165.07898
SMILES: N[C@@H](CC1=CC=CC=C1)C(O)=O
InChI: InChI=1S/C9H11NO2/c10-8(9(11)12)6-7-4-2-1-3-5-7/h1-5,8H,6,10H2,(H,11,12)/t8-/m0/s1
Instrument: Thermo Scientific Q-Exactive Focus
Instrument type: LC-ESI-ITFT
Ms type: MS2
Ion mode: NEGATIVE
Ionization: ESI
Collision energy: 100
Column name: Acquity CSHC18
Retention time: 2.582 min
Base peak: 164.07170
Precursor m/z: 164.07170
Precursor type: [M-H]-
m/z	relative intensity
62.9629	999
78.9578	468
79.645	92
92.3562	92
109.7726	91
123.9252	96
130.9102	92
131.099	108
147.8684	89
149.8776	90
