Mass spectrum: dGTP; LC-ESI-QTOF; MS2; CE: -10, -35, -60V;  [M-H]-
Name: dGTP
Class: NA
Formula: C10H16N5O13P3
Exact mass: 506.9957
SMILES: C1C(C(OC1N2C=NC3=C2NC(=NC3=O)N)COP(=O)(O)OP(=O)(O)OP(=O)(O)O)O
InChI: InChI=1S/C10H16N5O13P3/c11-10-13-8-7(9(17)14-10)12-3-15(8)6-1-4(16)5(26-6)2-25-30(21,22)28-31(23,24)27-29(18,19)20/h3-6,16H,1-2H2,(H,21,22)(H,23,24)(H2,18,19,20)(H3,11,13,14,17)
Instrument: TripleToF 5600; Sciex
Instrument type: LC-ESI-QTOF
Ms type: MS2
Ion mode: NEGATIVE
Ionization: ESI
Collision energy: -10, -35, -60V
Column name: Acquity CSHC18
Retention time: 15.182 min
Base peak: 505.9917
Precursor m/z: 505.9917
Precursor type: [M-H]-
Precursor intensity: 124397.8
m/z	relative intensity
78.959	377
158.9133	13
158.9257	999
176.9352	61
230.0074	27
238.8932	74
256.9596	56
408.014	242
426.0192	69
505.9932	380
