Mass spectrum: Glycerol; LC-ESI-ITFT; MS2; CE: 10;  [M-H]-
Name: Glycerol
Class: Organic oxygen compounds; Organooxygen compounds; Carbohydrates and carbohydrate conjugates
Formula: C3H8O3
Exact mass: 92.04734
SMILES: OCC(O)CO
InChI: InChI=1S/C3H8O3/c4-1-3(6)2-5/h3-6H,1-2H2
Instrument: Thermo Scientific Q-Exactive Focus
Instrument type: LC-ESI-ITFT
Ms type: MS2
Ion mode: NEGATIVE
Ionization: ESI
Collision energy: 10
Column name: Acquity CSHC18
Retention time: 0.360 min
Base peak: 91.04007
Precursor m/z: 91.04007
Precursor type: [M-H]-
m/z	relative intensity
72.5136	734
81.8299	464
88.7225	474
92.5152	999
95.4366	460
98.062	487
104.6816	468
105.7758	456
105.9856	456
108.6808	511
