Mass spectrum: L-Histidine; LC-ESI-ITFT; MS2; CE: 30;  [M+H]+
Name: L-Histidine
Class: Organic acids and derivatives; Carboxylic acids and derivatives; Amino acids, peptides, and analogues
Formula: C6H9N3O2
Exact mass: 155.06948
SMILES: N[C@@H](CC1=CN=CN1)C(O)=O
InChI: InChI=1S/C6H9N3O2/c7-5(6(10)11)1-4-2-8-3-9-4/h2-3,5H,1,7H2,(H,8,9)(H,10,11)/t5-/m0/s1
Instrument: Thermo Scientific Q-Exactive Focus
Instrument type: LC-ESI-ITFT
Ms type: MS2
Ion mode: POSITIVE
Ionization: ESI
Collision energy: 30
Column name: Acquity CSHC18
Retention time: 0.914 min
Base peak: 156.07675
Precursor m/z: 156.07675
Precursor type: [M+H]+
m/z	relative intensity
54.0344	29
55.0423	14
56.0501	359
68.05	82
81.0452	219
82.053	363
83.0608	999
93.0451	572
95.0607	64
110.0715	440
