Mass spectrum: 3-Nitrotyrosine; LC-ESI-ITFT; MS2; CE: 40;  [M+H]+
Name: 3-Nitrotyrosine
Class: Organic acids and derivatives; Carboxylic acids and derivatives; Amino acids, peptides, and analogues
Formula: C9H10N2O5
Exact mass: 226.05897
SMILES: N[C@@H](CC1=CC=C(O)C(=C1)[N+]([O-])=O)C(O)=O
InChI: InChI=1S/C9H10N2O5/c10-6(9(13)14)3-5-1-2-8(12)7(4-5)11(15)16/h1-2,4,6,12H,3,10H2,(H,13,14)/t6-/m0/s1
Instrument: Thermo Scientific Q-Exactive Focus
Instrument type: LC-ESI-ITFT
Ms type: MS2
Ion mode: POSITIVE
Ionization: ESI
Collision energy: 40
Column name: Acquity CSHC18
Retention time: 1.463 min
Base peak: 227.06625
Precursor m/z: 227.06625
Precursor type: [M+H]+
m/z	relative intensity
63.0234	687
65.039	637
78.0468	402
80.0498	319
90.0341	999
104.0497	973
106.0653	311
107.0493	372
109.0286	321
117.0448	304
