Mass spectrum: 8-iso Prostaglandin F1-alpha; ESI-TOF; MS2; CE: 6.0000000;  [M+H]+
Name: 8-iso Prostaglandin F1-alpha
Class: NA
Formula: C20H36O5
Exact mass: 356.25627
SMILES: OC1CC(O)C(/C=C/C(O)CCCCC)C1CCCCCCC(O)=O
InChI: InChI=1S/C20H36O5/c1-2-3-6-9-15(21)12-13-17-16(18(22)14-19(17)23)10-7-4-5-8-11-20(24)25/h12-13,15-19,21-23H,2-11,14H2,1H3,(H,24,25)/b13-12+
Instrument: waters xevo g2 TOF
Instrument type: ESI-TOF
Ms type: MS2
Ion mode: POSITIVE
Ionization: ESI
Collision energy: 6.0000000
Column name: Acquity CSHC18
Retention time: 3.472 min
Base peak: 357.26427
Precursor m/z: 357.26427
Precursor type: [M+H]+
m/z	relative intensity
88.968	5
95.0866	4
107.0867	2
121.1028	6
163.1488	12
183.0977	2
205.16	95
206.1633	7
221.154	9
233.1903	3
241.1947	5
245.1156	4
249.1872	2
259.2059	15
267.2101	14
277.2147	107
278.221	11
279.2296	3
285.2221	68
286.2256	13
293.2487	7
295.2285	11
301.2181	15
303.2329	999
304.2366	204
305.2453	68
319.2274	14
321.2438	601
322.2445	104
337.2381	21
339.2543	105
340.257	14
353.2715	4
355.2513	4
