Mass spectrum: N-ACETYLLEUCINE; LC-ESI-QFT; MS2; CE: 30eV;  [M+H]+
Name: N-ACETYLLEUCINE
Class: NA
Formula: C8H15NO3
Exact mass: 173.10519
SMILES: CC(C)C[C@H](NC(C)=O)C(O)=O
InChI: InChI=1S/C8H15NO3/c1-5(2)4-7(8(11)12)9-6(3)10/h5,7H,4H2,1-3H3,(H,9,10)(H,11,12)/t7-/m0/s1
Instrument: Q-Exactive Orbitrap, Thermo Scientfic; Ultimate 3000 HPLC, Thermo Scientfic
Instrument type: LC-ESI-QFT
Ms type: MS2
Ion mode: POSITIVE
Ionization: ESI
Collision energy: 30eV
Column name: Acquity CSHC18
Retention time: 6.215 min
Base peak: 174.1125
Precursor m/z: 174.1125
Precursor type: [M+H]+
Precursor intensity: 130
m/z	relative intensity
60.045	3
72.045	3
72.0813	1
86.097	999
87.0939	1
87.1003	27
87.103	1
100.1124	3
128.1072	352
129.1106	14
132.102	430
133.1053	13
151.9375	1
156.102	14
174.1124	5
