Mass spectrum: Tyramine; LC-ESI-QTOF; MS2; CE: 15.00;  [M-NH3+H]+
Name: Tyramine
Class: NA
Formula: C8H11NO
Exact mass: 137.0841
SMILES: C1=CC(=CC=C1CCN)O
InChI: InChI=1S/C8H11NO/c9-6-5-7-1-3-8(10)4-2-7/h1-4,10H,5-6,9H2
Instrument: Bruker MicrOTOF-Q
Instrument type: LC-ESI-QTOF
Ms type: MS2
Ion mode: POSITIVE
Ionization: ESI
Collision energy: 15.00
Column name: Acquity CSHC18
Retention time: NA
Base peak: 121.0648
Precursor m/z: 121.0648
Precursor type: [M-NH3+H]+
m/z	relative intensity
102.0468	28
119.0505	31
121.0654	999
122.07	96
