Mass spectrum: 2-Pyrocatechuic acid; LC-ESI-ITFT; MS2; CE: 100;  [M-H]-
Name: 2-Pyrocatechuic acid
Class: Benzenoids; Benzene and substituted derivatives; Benzoic acids and derivatives
Formula: C7H6O4
Exact mass: 154.02661
SMILES: OC(=O)C1=C(O)C(O)=CC=C1
InChI: InChI=1S/C7H6O4/c8-5-3-1-2-4(6(5)9)7(10)11/h1-3,8-9H,(H,10,11)
Instrument: Thermo Scientific Q-Exactive Focus
Instrument type: LC-ESI-ITFT
Ms type: MS2
Ion mode: NEGATIVE
Ionization: ESI
Collision energy: 100
Column name: Acquity CSHC18
Retention time: 2.584 min
Base peak: 153.01933
Precursor m/z: 153.01933
Precursor type: [M-H]-
m/z	relative intensity
72.5105	873
75.952	845
77.9871	872
79.11	880
83.9437	943
100.5078	885
100.6264	907
104.2621	894
141.8873	850
170.9622	999
