Mass spectrum: P-aminobenzoic acid; LC-ESI-QTOF; MS2; CE: 35.00;  [M+H]+
Name: P-aminobenzoic acid
Class: NA
Formula: C7H7NO2
Exact mass: 137.0477
SMILES: C1=CC(=CC=C1C(=O)O)N
InChI: InChI=1S/C7H7NO2/c8-6-3-1-5(2-4-6)7(9)10/h1-4H,8H2,(H,9,10)
Instrument: Bruker MicrOTOF-Q
Instrument type: LC-ESI-QTOF
Ms type: MS2
Ion mode: POSITIVE
Ionization: ESI
Collision energy: 35.00
Column name: Acquity CSHC18
Retention time: NA
Base peak: 138.0548
Precursor m/z: 138.0548
Precursor type: [M+H]+
m/z	relative intensity
120.0431	811
120.0465	999
