Mass spectrum: Carabrone; LC-ESI-ITFT; MS2; CE: 50eV;  [M+H]+
Name: Carabrone
Class: Sesquiterpenelactone; Xanthanolide
Formula: C15H20O3
Exact mass: 248.1412
SMILES: CC(=O)CC[C@H]1[C@H]2[C@@]1(C[C@@H]3[C@H](C2)C(=C)C(=O)O3)C
InChI: InChI=1S/C15H20O3/c1-8(16)4-5-11-12-6-10-9(2)14(17)18-13(10)7-15(11,12)3/h10-13H,2,4-7H2,1,3H3/t10-,11+,12+,13-,15-/m1/s1
Instrument: Q Exactive Plus, ThermoFisher Scientific
Instrument type: LC-ESI-ITFT
Ms type: MS2
Ion mode: POSITIVE
Ionization: ESI
Collision energy: 50eV
Column name: Acquity CSHC18
Retention time: 6.925 min
Base peak: 249.1487
Precursor m/z: 249.1487
Precursor type: [M+H]+
Precursor intensity: 2812905000
m/z	relative intensity
95.0678	59
107.0679	65
119.0678	106
133.0831	438
145.0829	603
161.0782	999
