Mass spectrum: Maltose; LC-ESI-QTOF; MS2; CE: 16.88;  [M-H2O+H]+
Name: Maltose
Class: NA
Formula: C12H22O11
Exact mass: 342.1162
SMILES: C(C1C(C(C(C(O1)OC2C(OC(C(C2O)O)O)CO)O)O)O)O
InChI: InChI=1S/C12H22O11/c13-1-3-5(15)6(16)9(19)12(22-3)23-10-4(2-14)21-11(20)8(18)7(10)17/h3-20H,1-2H2
Instrument: Bruker MicrOTOF-Q
Instrument type: LC-ESI-QTOF
Ms type: MS2
Ion mode: POSITIVE
Ionization: ESI
Collision energy: 16.88
Column name: Acquity CSHC18
Retention time: NA
Base peak: 325.1129
Precursor m/z: 325.1129
Precursor type: [M-H2O+H]+
m/z	relative intensity
85.0229	89
86.0246	4
91.0312	7
97.023	228
98.0323	9
99.0411	37
100.3327	5
101.0192	19
104.7938	6
108.9647	5
109.025	220
110.0325	21
111.0343	6
113.0131	8
115.0348	154
116.0375	9
117.0522	14
127.0357	862
127.191	4
128.0392	82
129.7459	5
144.8913	7
145.0477	999
145.6154	5
146.051	111
146.5886	6
147.0645	8
161.0292	7
163.0595	127
173.0605	5
175.0633	5
187.1526	7
200.0468	6
213.0662	6
214.1012	6
241.0705	11
258.0906	5
271.0874	7
791.2969	8
