Mass spectrum: Inosine; LC-ESI-ITFT; MS2; CE: 40;  [M+H]+
Name: Inosine
Class: Nucleosides, nucleotides, and analogues; Purine nucleosides
Formula: C10H12N4O5
Exact mass: 268.08077
SMILES: OC[C@H]1O[C@H]([C@H](O)[C@@H]1O)N1C=NC2=C1NC=NC2=O
InChI: InChI=1S/C10H12N4O5/c15-1-4-6(16)7(17)10(19-4)14-3-13-5-8(14)11-2-12-9(5)18/h2-4,6-7,10,15-17H,1H2,(H,11,12,18)/t4-,6-,7-,10-/m1/s1
Instrument: Thermo Scientific Q-Exactive Focus
Instrument type: LC-ESI-ITFT
Ms type: MS2
Ion mode: POSITIVE
Ionization: ESI
Collision energy: 40
Column name: Acquity CSHC18
Retention time: 1.463 min
Base peak: 269.08804
Precursor m/z: 269.08804
Precursor type: [M+H]+
m/z	relative intensity
55.0184	10
55.0296	16
57.0341	17
82.0404	23
94.0403	70
110.0351	154
112.0508	8
119.0354	100
128.0456	7
137.0459	999
