Mass spectrum: quinidine; LC-ESI-QFT; MS2; CE: 15,30,45 (NCE);  [M+Cl]-
Name: quinidine
Class: NA
Formula: C20H24N2O2
Exact mass: 324.1838
SMILES: COC1=CC2=C(C=CN=C2C=C1)C(O)C1CC2CCN1CC2C=C
InChI: InChI=1S/C20H24N2O2/c1-3-13-12-22-9-7-14(13)10-19(22)20(23)16-6-8-21-18-5-4-15(24-2)11-17(16)18/h3-6,8,11,13-14,19-20,23H,1,7,9-10,12H2,2H3
Instrument: QE Focus, Thermo Scientfic; UPLC I-Class, Waters
Instrument type: LC-ESI-QFT
Ms type: MS2
Ion mode: NEGATIVE
Ionization: ESI
Collision energy: 15,30,45 (NCE)
Column name: Acquity CSHC18
Retention time: 1.081 min
Base peak: 359.1536
Precursor m/z: 359.1536
Precursor type: [M+Cl]-
Precursor intensity: 793315.8
m/z	relative intensity
51.4661	960
84.3537	909
122.6416	999
