Mass spectrum: L-Aspartic acid; LC-ESI-QTOF; MS2; CE: 15.68;  [2M+2Na-3H]+
Name: L-Aspartic acid
Class: NA
Formula: C4H7NO4
Exact mass: 133.0375
SMILES: C(C(C(=O)O)N)C(=O)O
InChI: InChI=1S/C4H7NO4/c5-2(4(8)9)1-3(6)7/h2H,1,5H2,(H,6,7)(H,8,9)
Instrument: Bruker MicrOTOF-Q
Instrument type: LC-ESI-QTOF
Ms type: MS2
Ion mode: POSITIVE
Ionization: ESI
Collision energy: 15.68
Column name: Acquity CSHC18
Retention time: NA
Base peak: 309.0316
Precursor m/z: 309.0316
Precursor type: [2M+2Na-3H]+
m/z	relative intensity
46.4854	142
47.0635	134
55.4928	109
66.3363	91
81.5844	98
82.8601	120
85.9526	109
95.7892	80
105.341	160
105.3833	142
114.9773	149
120.6197	72
128.0155	80
131.6838	178
132.0325	999
194.3606	127
212.9345	87
218.1726	113
327.718	131
334.6079	156
343.995	72
371.168	98
394.0899	76
397.1226	72
406.2298	72
416.2706	102
435.094	109
440.1676	102
488.916	131
510.4567	145
519.5513	80
571.1798	83
594.4213	113
598.7111	72
636.3737	116
671.2699	113
671.7622	87
722.4253	87
747.0963	109
804.6371	76
873.7409	109
878.0109	123
889.8031	116
926.8549	109
