Mass spectrum: Prostaglandin F2-alpha Alcohol methyl ether; ESI-TOF; MS2; CE: 6.0000000;  [M+H]+
Name: Prostaglandin F2-alpha Alcohol methyl ether
Class: NA
Formula: C21H38O4
Exact mass: 354.27701
SMILES: CCCCCC(C=CC1C(CC(C1CC=CCCCCOC)O)O)O
InChI: InChI=1S/C21H38O4/c1-3-4-8-11-17(22)13-14-19-18(20(23)16-21(19)24)12-9-6-5-7-10-15-25-2/h6,9,13-14,17-24H,3-5,7-8,10-12,15-16H2,1-2H3
Instrument: waters xevo g2 TOF
Instrument type: ESI-TOF
Ms type: MS2
Ion mode: POSITIVE
Ionization: ESI
Collision energy: 6.0000000
Column name: Acquity CSHC18
Retention time: 4.244 min
Base peak: 355.28501
Precursor m/z: 355.28501
Precursor type: [M+H]+
m/z	relative intensity
95.086	17
117.0708	14
119.0865	12
131.0868	25
133.1022	21
135.119	25
145.1022	37
147.1175	8
149.1326	21
159.1179	79
161.1303	11
166.1014	19
171.1181	91
173.1331	79
175.1461	40
179.1099	42
185.1335	106
187.1483	55
188.115	69
189.164	24
199.1491	36
201.164	36
203.1791	25
213.1638	20
219.1757	21
227.1499	14
231.2089	47
233.2255	137
234.2302	26
236.1237	5
241.1957	23
243.212	414
244.214	67
245.2251	47
259.2414	79
260.2425	8
261.2231	23
263.2347	8
269.2274	961
270.2305	164
271.2389	35
275.2375	231
276.238	38
287.2366	999
288.242	198
289.2482	23
291.2714	7
293.2465	24
301.2522	922
302.258	196
303.2633	27
305.2484	221
306.2508	44
318.1638	19
319.2144	619
320.2698	251
321.2712	34
331.1962	23
337.2756	488
338.2779	107
356.2483	25
356.7505	17
