Mass spectrum: L-Tyrosine; LC-ESI-QTOF; MS2; CE: 35.00;  [M+H]+
Name: L-Tyrosine
Class: NA
Formula: C9H11NO3
Exact mass: 181.0739
SMILES: C1=CC(=CC=C1CC(C(=O)O)N)O
InChI: InChI=1S/C9H11NO3/c10-8(9(12)13)5-6-1-3-7(11)4-2-6/h1-4,8,11H,5,10H2,(H,12,13)
Instrument: Bruker MicrOTOF-Q
Instrument type: LC-ESI-QTOF
Ms type: MS2
Ion mode: POSITIVE
Ionization: ESI
Collision energy: 35.00
Column name: Acquity CSHC18
Retention time: NA
Base peak: 182.0818
Precursor m/z: 182.0818
Precursor type: [M+H]+
m/z	relative intensity
117.0534	413
117.0543	612
118.0613	608
118.0624	999
119.048	713
120.0501	543
134.0587	578
135.0637	221
136.0742	197
