Mass spectrum: 6-Hydroxyindole; LC-ESI-QTOF; MS2; CE: 15.00;  [M-H]-
Name: 6-Hydroxyindole
Class: NA
Formula: C8H7NO
Exact mass: 133.0528
SMILES: C1=CC(=CC2=C1C=CN2)O
InChI: InChI=1S/C8H7NO/c10-7-2-1-6-3-4-9-8(6)5-7/h1-5,9-10H
Instrument: Bruker MicrOTOF-Q
Instrument type: LC-ESI-QTOF
Ms type: MS2
Ion mode: NEGATIVE
Ionization: ESI
Collision energy: 15.00
Column name: Acquity CSHC18
Retention time: NA
Base peak: 132.0455
Precursor m/z: 132.0455
Precursor type: [M-H]-
m/z	relative intensity
47.1425	43
71.0901	35
77.5446	26
78.4022	27
81.4031	28
90.2825	50
103.991	44
104.0513	114
105.5407	39
117.7464	24
118.181	47
120.4353	34
120.7408	33
131.0369	999
131.2478	26
132.0445	515
133.0495	32
134.9387	23
164.1138	31
182.715	24
185.6889	23
189.5211	51
209.0305	28
279.7813	33
286.1036	33
393.6518	23
434.1338	23
451.5503	28
488.6156	32
490.609	24
570.6324	23
572.7818	25
584.6578	23
606.7055	28
614.8266	29
617.7105	26
709.7082	42
737.1103	33
905.7856	32
911.5105	33
975.4827	46
