Mass spectrum: GLUCOSE 6-PHOSPHATE; LC-ESI-QFT; MS2; CE: 30eV;  [M-H]-
Name: GLUCOSE 6-PHOSPHATE
Class: NA
Formula: C6H13O9P
Exact mass: 260.02972
SMILES: OC1O[C@H](COP(O)(O)=O)[C@@H](O)[C@H](O)[C@H]1O
InChI: InChI=1S/C6H13O9P/c7-3-2(1-14-16(11,12)13)15-6(10)5(9)4(3)8/h2-10H,1H2,(H2,11,12,13)/t2-,3-,4+,5-,6?/m1/s1
Instrument: Q-Exactive Orbitrap, Thermo Scientfic; Ultimate 3000 HPLC, Thermo Scientfic
Instrument type: LC-ESI-QFT
Ms type: MS2
Ion mode: NEGATIVE
Ionization: ESI
Collision energy: 30eV
Column name: Acquity CSHC18
Retention time: 0.551 min
Base peak: 259.0224
Precursor m/z: 259.0224
Precursor type: [M-H]-
Precursor intensity: 149
m/z	relative intensity
58.9574	5
71.0122	1
73.0278	1
78.9574	253
96.9679	999
100.9313	1
101.0227	9
102.9471	79
138.9785	64
146.937	123
150.9787	6
168.9893	17
186.9383	1
190.9272	4
199	29
223.0001	3
241.0101	1
259.0219	12
