Mass spectrum: GALACTOSAMINE; LC-ESI-QTOF; MS2; CE: 10;  [M+H]+
Name: GALACTOSAMINE
Class: NA
Formula: C6H13NO5
Exact mass: 179.07937
SMILES: N[C@H]1C(O)O[C@H](CO)[C@H](O)[C@@H]1O
InChI: InChI=1S/C6H13NO5/c7-3-5(10)4(9)2(1-8)12-6(3)11/h2-6,8-11H,1,7H2/t2-,3-,4+,5-,6?/m1/s1
Instrument: Agilent 6530Â Q-TOF LC/MS
Instrument type: LC-ESI-QTOF
Ms type: MS2
Ion mode: POSITIVE
Ionization: ESI
Collision energy: 10
Column name: NA
Retention time: 0.200 min
Base peak: 180.08430
Precursor m/z: 180.08430
Precursor type: [M+H]+
Precursor intensity: 150.5
m/z	relative intensity
41.0415	38
44.0712	40
45.041	40
53.0391	42
55.0572	47
56.0503	53
57.0458	54
58.0418	55
60.0561	55
61.035	59
68.0493	61
69.0409	63
70.0782	80
72.1431	80
74.0576	86
80.0634	90
81.0407	92
82.0603	105
84.0607	110
85.0409	122
91.0359	128
96.0715	164
97.0401	169
98.0789	169
102.0574	196
108.0603	241
109.0305	262
114.0632	352
126.0826	540
144.0876	568
162.1131	787
180.0991	999
