Mass spectrum: Chlorogenic acid; LC-ESI-QTOF; MS2; CE: 19.13;  [M+H]+
Name: Chlorogenic acid
Class: NA
Formula: C16H18O9
Exact mass: 354.0951
SMILES: C1C(C(C(CC1(C(=O)O)O)OC(=O)C=CC2=CC(=C(C=C2)O)O)O)O
InChI: InChI=1S/C16H18O9/c17-9-3-1-8(5-10(9)18)2-4-13(20)25-12-7-16(24,15(22)23)6-11(19)14(12)21/h1-5,11-12,14,17-19,21,24H,6-7H2,(H,22,23)
Instrument: Bruker MicrOTOF-Q
Instrument type: LC-ESI-QTOF
Ms type: MS2
Ion mode: POSITIVE
Ionization: ESI
Collision energy: 19.13
Column name: Acquity CSHC18
Retention time: NA
Base peak: 355.1024
Precursor m/z: 355.1024
Precursor type: [M+H]+
m/z	relative intensity
83.07	1
111.04	6
112.04	1
117.03	9
118.03	1
119.04	1
121.02	2
121.5	1
127.73	1
129.05	1
133.03	3
134.02	1
135.04	20
136.05	2
145.03	69
146.03	6
147.03	1
150.36	1
157.04	1
162.22	1
162.36	1
162.49	1
162.83	1
162.9	1
163.04	999
163.2	3
163.24	3
163.33	2
163.47	2
163.56	2
163.88	1
163.95	2
164.04	92
164.34	1
164.44	1
164.56	1
164.74	1
164.91	1
165.04	3
165.58	1
167.93	1
181.05	10
182.06	1
217.09	1
227.08	1
337.08	6
338.12	1
612	1
