Mass spectrum: Arjunolic acid; LC-ESI-ITFT; MS2; CE: 0.3;  [M+H]+
Name: Arjunolic acid
Class: triterpenic acids
Formula: C30H48O5
Exact mass: 488.3502
SMILES: CC1(CCC2(CCC3(C(=CCC4C3(CCC5C4(CC(C(C5(C)CO)O)O)C)C)C2C1)C)C(=O)O)C
InChI: InChI=1S/C30H48O5/c1-25(2)11-13-30(24(34)35)14-12-28(5)18(19(30)15-25)7-8-22-26(3)16-20(32)23(33)27(4,17-31)21(26)9-10-29(22,28)6/h7,19-23,31-33H,8-17H2,1-6H3,(H,34,35)
Instrument: LTQ-Orbitrap XL hybrid mass spectrometer (Thermo Scientific)
Instrument type: LC-ESI-ITFT
Ms type: MS2
Ion mode: POSITIVE
Ionization: ESI
Collision energy: 0.3
Column name: Acquity CSHC18
Retention time: 11.774 min
Base peak: 489.3560
Precursor m/z: 489.3560
Precursor type: [M+H]+
Precursor intensity: 893220.2
m/z	relative intensity
121.6935	10
123.9572	9
125.6476	9
129.2142	8
140.9107	9
141.6867	11
166.9356	26
177.1627	22
181.9918	9
187.148	20
192.9119	10
192.9412	11
203.1788	26
205.1585	155
223.1683	14
223.9294	9
232.2778	8
253.9741	9
274.6692	11
287.028	22
302.116	11
324.0791	24
368.7038	10
371.6194	11
374.2117	9
377.3213	12
379.3358	31
389.317	18
391.3278	12
394.6402	11
395.3263	17
405.3148	15
407.3311	58
409.3467	100
423.3246	94
425.3394	111
427.3575	36
435.3261	81
441.335	159
443.3471	18
445.3672	45
453.3355	999
471.3459	498
