Mass spectrum: Celereoin; LC-ESI-ITFT; MS2; CE: 45eV;  [M+H]+
Name: Celereoin
Class: coumarin
Formula: C14H14O5
Exact mass: 262.0841
SMILES: CC(C)(C1CC2=C(O1)C=C3C(=C2O)C=CC(=O)O3)O
InChI: InChI=1S/C14H14O5/c1-14(2,17)11-5-8-10(18-11)6-9-7(13(8)16)3-4-12(15)19-9/h3-4,6,11,16-17H,5H2,1-2H3
Instrument: LTQ Orbitrap XL, Thermo Scientfic; Dionex Ultimate 300
Instrument type: LC-ESI-ITFT
Ms type: MS2
Ion mode: POSITIVE
Ionization: ESI
Collision energy: 45eV
Column name: Alltima C18
Retention time: 20.32 min
Base peak: 263.0903
Precursor m/z: 263.0903
Precursor type: [M+H]+
m/z	relative intensity
134.9532	123
170.9683	106
174.9906	999
188.9812	356
201.247	270
220.846	349
232.9777	213
