Mass spectrum: H-Tyr-Ile-OH; LC-ESI-QTOF; MS2; CE: 15.00;  [M-H]-
Name: H-Tyr-Ile-OH
Class: NA
Formula: C15H22N2O4
Exact mass: 294.1580
SMILES: CCC(C)C(C(=O)O)NC(=O)C(CC1=CC=C(C=C1)O)N
InChI: InChI=1S/C15H22N2O4/c1-3-9(2)13(15(20)21)17-14(19)12(16)8-10-4-6-11(18)7-5-10/h4-7,9,12-13,18H,3,8,16H2,1-2H3,(H,17,19)(H,20,21)
Instrument: Bruker MicrOTOF-Q
Instrument type: LC-ESI-QTOF
Ms type: MS2
Ion mode: NEGATIVE
Ionization: ESI
Collision energy: 15.00
Column name: Acquity CSHC18
Retention time: NA
Base peak: 293.1507
Precursor m/z: 293.1507
Precursor type: [M-H]-
m/z	relative intensity
45.46	33
46.21	33
47.52	33
47.94	33
48.68	33
49.625	38
52.105	44
53.68	33
54.61	33
55.69	33
58.83	33
59.68	55
60.31	33
61.19	33
62.4	33
64.135	33
65.27	33
66.73	40
67.61	33
68.52	38
69.24	33
71.26	33
73.11	33
73.76	33
74.95	33
75.6	33
76.6	44
77.49	33
78.4112	34
79.4	33
80.81	33
82.0433	33
83.73	33
84.415	46
85.79	44
86.62	33
88.42	33
90.265	44
91.5	33
92.978	33
94.33	33
96.14	44
97.51	33
98.57	44
99.45	33
99.95	66
101.17	33
101.69	33
102.65	33
103.795	33
105.45	33
106.04	77
107.2167	295
109.55	33
110.69	33
111.56	33
112.07	33
113.69	55
114.365	38
115.54	44
119.05	231
120.85	38
124.69	33
125.895	33
126.51	33
127.39	33
127.97	33
130.3142	356
132.355	38
133.51	33
134.25	150
135.03	33
137.19	33
138.62	33
139.37	33
140.4	33
141	813
141.56	33
142.0933	91
143.12	242
144.12	55
147.04	66
148.37	33
149.035	33
150.22	33
150.62	33
152.41	33
153.85	33
159.36	33
161.19	33
162.07	55
163.47	33
164.06	33
164.51	44
166.85	33
169.25	44
171.1	33
173.85	33
175.49	33
176.67	33
179.07	44
180.67	33
181.85	33
182.75	55
184.41	33
187.0025	322
188.2025	63
195.2667	33
196.6	33
200.03	44
202.32	33
205.5	33
206.11	33
208.57	44
209.45	33
211.31	33
214.33	33
224.1	33
225.28	33
228.97	33
230.07	33
231.86	507
233.195	215
236.03	33
242.54	33
243.06	33
248	38
249.085	999
249.62	44
250.16	364
257.17	33
262.475	33
268.42	33
275.13	33
277.75	33
283.29	33
286.95	33
291.47	33
293.2718	819
295.23	33
335.87	33
375.45	33
395.55	33
546.36	33
592.08	33
593.15	33
606.24	33
