Mass spectrum: H-Leu-Val-OH; LC-ESI-QTOF; MS2; CE: 15.00;  [M+H]+
Name: H-Leu-Val-OH
Class: NA
Formula: C11H22N2O3
Exact mass: 230.1630
SMILES: CC(C)CC(C(=O)NC(C(C)C)C(=O)O)N
InChI: InChI=1S/C11H22N2O3/c1-6(2)5-8(12)10(14)13-9(7(3)4)11(15)16/h6-9H,5,12H2,1-4H3,(H,13,14)(H,15,16)
Instrument: Bruker MicrOTOF-Q
Instrument type: LC-ESI-QTOF
Ms type: MS2
Ion mode: POSITIVE
Ionization: ESI
Collision energy: 15.00
Column name: Acquity CSHC18
Retention time: NA
Base peak: 231.1703
Precursor m/z: 231.1703
Precursor type: [M+H]+
m/z	relative intensity
150.92	29
168.14	77
185.16	999
186.16	56
196.13	28
213.16	165
214.14	62
231.17	946
232.17	138
233.19	27
332.05	20
