Mass spectrum: Lyciumoside II; LC-ESI-QTOF; MS2; CE: 15.7eV;  [M+NH4]+
Name: Lyciumoside II
Class: Diterpene
Formula: C38H64O17
Exact mass: 792.4144
SMILES: C/C(=C\CC/C(=C/CC[C@@](C)(C=C)O[C@H]1[C@@H]([C@H]([C@@H]([C@H](O1)CO)O)O)O)/C)/CC/C=C(/C)\CO[C@H]2[C@@H]([C@H]([C@@H]([C@H](O2)CO)O)O)O[C@H]3[C@@H]([C@H]([C@@H]([C@H](O3)CO)O)O)O
InChI: InChI=1S/C38H64O17/c1-6-38(5,55-36-33(49)30(46)27(43)24(17-40)52-36)15-9-14-21(3)11-7-10-20(2)12-8-13-22(4)19-50-37-34(31(47)28(44)25(18-41)53-37)54-35-32(48)29(45)26(42)23(16-39)51-35/h6,10,13-14,23-37,39-49H,1,7-9,11-12,15-19H2,2-5H3/b20-10+,21-14+,22-13-/t23-,24-,25-,26-,27-,28-,29+,30+,31+,32-,33-,34-,35+,36+,37-,38-/m1/s1
Instrument: Impact II qTOF
Instrument type: LC-ESI-QTOF
Ms type: MS2
Ion mode: POSITIVE
Ionization: ESI
Collision energy: 15.7eV
Column name: Acquity CSH C18 column (particle size 1.7 μm, column length 2.1 × 50 mm) (Waters)
Retention time: 18.9 min
Base peak: 810.4489
Precursor m/z: 810.4489
Precursor type: [M+NH4]+
m/z	relative intensity
145.0497	35
163.0608	86
163.1486	41
215.1798	47
271.2425	999
272.2456	167
289.2535	242
290.2564	53
325.1133	542
326.1175	78
433.2969	33
451.3066	63
487.1672	48
613.3603	54
810.4489	506
