Mass spectrum: Caffeine; LC-ESI-ITFT; MS2; CE: 100;  [M+H]+
Name: Caffeine
Class: Organoheterocyclic compounds; Imidazopyrimidines; Purines and purine derivatives
Formula: C8H10N4O2
Exact mass: 194.08038
SMILES: CN1C=NC2=C1C(=O)N(C)C(=O)N2C
InChI: InChI=1S/C8H10N4O2/c1-10-4-9-6-5(10)7(13)12(3)8(14)11(6)2/h4H,1-3H3
Instrument: Thermo Scientific Q-Exactive Focus
Instrument type: LC-ESI-ITFT
Ms type: MS2
Ion mode: POSITIVE
Ionization: ESI
Collision energy: 100
Column name: Acquity CSHC18
Retention time: 2.308 min
Base peak: 195.08765
Precursor m/z: 195.08765
Precursor type: [M+H]+
m/z	relative intensity
53.998	511
62.745	332
92.5226	999
94.5026	341
124.493	335
131.5424	346
142.8608	340
168.0348	338
168.1786	417
175.4577	421
