Mass spectrum: Aldosterone; LC-ESI-QTOF; MS2; CE: 10;  [M+H]+
Name: Aldosterone
Class: NA
Formula: C21H28O5
Exact mass: 360.1937
SMILES: C[C@]12CCC(=O)C=C1CC[C@@H]3[C@@H]2[C@H](C[C@]4([C@H]3CC[C@@H]4C(=O)CO)C=O)O
InChI: InChI=1S/C21H28O5/c1-20-7-6-13(24)8-12(20)2-3-14-15-4-5-16(18(26)10-22)21(15,11-23)9-17(25)19(14)20/h8,11,14-17,19,22,25H,2-7,9-10H2,1H3/t14-,15-,16+,17-,19+,20-,21+/m0/s1
Instrument: Agilent 6560Â Ion Mobility Q-TOF LC/MS
Instrument type: LC-ESI-QTOF
Ms type: MS2
Ion mode: POSITIVE
Ionization: ESI
Collision energy: 10
Column name: Acquity CSHC18
Retention time: 0.200 min
Base peak: 361.2010
Precursor m/z: 361.2010
Precursor type: [M+H]+
Precursor intensity: 150.5
m/z	relative intensity
279.1741	106
299.165	147
314.1811	154
315.2016	189
325.1844	193
343.201	218
344.1966	234
361.2142	240
361.3536	719
362.2059	999
