Mass spectrum: 13,14-dihydro-15-keto Prostaglandin F2-alpha isopropyl ester; ESI-TOF; MS2; CE: 0.6458333;  [M+H]+
Name: 13,14-dihydro-15-keto Prostaglandin F2-alpha isopropyl ester
Class: NA
Formula: C23H40O5
Exact mass: 396.28757
SMILES: O[C@H]1[C@H](CCC(CCCCC)=O)[C@@H](C/C=C\CCCC(OC(C)C)=O)[C@@H](O)C1
InChI: InChI=1S/C23H40O5/c1-4-5-8-11-18(24)14-15-20-19(21(25)16-22(20)26)12-9-6-7-10-13-23(27)28-17(2)3/h6,9,17,19-22,25-26H,4-5,7-8,10-16H2,1-3H3/b9-6-/t19-,20-,21+,22-/m1/s1
Instrument: waters xevo g2 TOF
Instrument type: ESI-TOF
Ms type: MS2
Ion mode: POSITIVE
Ionization: ESI
Collision energy: 0.6458333
Column name: Acquity CSHC18
Retention time: 4.604 min
Base peak: 397.29557
Precursor m/z: 397.29557
Precursor type: [M+H]+
m/z	relative intensity
67.0534	18
71.0856	192
79.0542	42
81.0701	62
85.0657	12
91.0548	123
93.0712	129
95.086	45
97.0655	19
99.0814	481
105.0709	180
107.0857	38
109.0665	17
113.0605	23
115.0543	10
117.0707	160
118.0755	12
119.0866	159
120.0893	10
121.1012	24
127.1126	18
128.0619	17
129.0709	128
131.086	257
132.0889	15
133.1016	84
141.0707	73
142.0709	10
143.0863	218
144.0887	13
145.102	740
146.1052	72
151.007	13
155.0858	17
157.1013	136
159.1176	204
160.1219	22
161.096	20
163.0757	8
165.0228	12
167.0844	32
169.102	436
171.0979	73
173.0967	14
175.1293	52
179.0913	1
181.1026	55
183.1208	24
185.1334	398
186.1361	36
187.1122	667
188.1041	90
189.1286	5
191.1442	55
193.1578	23
195.1173	63
195.5832	1
197.1004	23
197.6005	1
199.1477	87
200.1537	7
201.1269	27
203.1432	719
204.1469	101
205.1228	842
206.1259	112
207.1748	8
209.1321	53
213.1274	56
217.1576	59
221.151	55
222.1561	7
227.1418	18
235.1692	8
239.1788	30
241.1949	101
243.0694	34
245.1548	13
247.1696	296
248.1717	40
249.0812	22
255.2095	55
259.2036	1
263.1992	25
265.1949	113
266.1969	12
273.2161	9
277.2164	7
283.2055	322
284.2095	56
289.2125	1
301.2172	306
302.2196	100
303.2216	6
319.1842	97
320.2043	34
320.6848	22
335.1945	27
337.238	12
338.2399	1
343.2628	152
344.2667	1
355.1417	10
357.1722	158
358.1787	19
359.2079	22
361.2699	154
362.2709	10
363.2364	5
373.1454	120
375.1851	566
376.188	129
377.2306	999
377.7372	10
378.2318	212
379.2378	42
380.2386	7
381.2916	1
390.1604	37
391.1582	187
392.1592	41
393.1966	805
394.1975	171
395.2443	1
395.7444	1
397.2948	1
