Mass spectrum: trans-epsilon-viniferin; LC-ESI-ITFT; MS2; CE: 0.3;  [M-H]-
Name: trans-epsilon-viniferin
Class: stilbenoids
Formula: C28H22O6
Exact mass: 454.1416
SMILES: C1=CC(=CC=C1C=CC2=C3C(C(OC3=CC(=C2)O)C4=CC=C(C=C4)O)C5=CC(=CC(=C5)O)O)O
InChI: InChI=1S/C28H22O6/c29-20-7-2-16(3-8-20)1-4-18-11-24(33)15-25-26(18)27(19-12-22(31)14-23(32)13-19)28(34-25)17-5-9-21(30)10-6-17/h1-15,27-33H
Instrument: LTQ-Orbitrap XL hybrid mass spectrometer (Thermo Scientific)
Instrument type: LC-ESI-ITFT
Ms type: MS2
Ion mode: NEGATIVE
Ionization: ESI
Collision energy: 0.3
Column name: Acquity CSHC18
Retention time: 8.096 min
Base peak: 453.1338
Precursor m/z: 453.1338
Precursor type: [M-H]-
Precursor intensity: 15213150
m/z	relative intensity
131.4585	7
147.6989	8
170.7617	8
180.6264	6
191.7359	8
225.056	14
253.0509	34
263.071	18
289.088	41
291.105	10
303.063	11
303.1031	18
305.0817	14
307.0967	9
315.1015	17
317.0795	16
327.0661	13
329.0815	21
333.0763	82
343.0974	82
345.0765	148
346.0836	68
347.0921	386
348.0972	20
359.092	999
360.0976	55
367.1344	13
369.1125	132
383.1291	24
385.144	25
395.0939	23
409.1444	91
411.1231	121
425.1397	24
435.1231	219
436.124	22
