Mass spectrum: Norvaline; LC-ESI-QTOF; MS2; CE: 15 / 50;  [M+H]+
Name: Norvaline
Class: NA
Formula: C5H11NO2
Exact mass: 117.07898
SMILES: CCCC(C(=O)O)N
InChI: InChI=1S/C5H11NO2/c1-2-3-4(6)5(7)8/h4H,2-3,6H2,1H3,(H,7,8)
Instrument: impact II
Instrument type: LC-ESI-QTOF
Ms type: MS2
Ion mode: POSITIVE
Ionization: ESI
Collision energy: 15 / 50
Column name: Acquity CSHC18
Retention time: 0.601 min
Base peak: 118.08650
Precursor m/z: 118.08650
Precursor type: [M+H]+
m/z	relative intensity
44.9973	1
45.0339	2
53.0139	2
53.0385	2
54.0099	1
55.0183	1
55.0549	31
58.0656	3
59.0735	2
72.0815	999
72.0918	76
72.1121	1
72.12	4
72.1348	9
72.1416	10
72.1497	17
72.1619	8
72.1898	3
72.1969	5
72.2291	1
73.0848	39
118.0864	17
