Mass spectrum: L-Homoserine; LC-ESI-ITFT; MS2; CE: 20;  [M-H]-
Name: L-Homoserine
Class: Organic acids and derivatives; Carboxylic acids and derivatives; Amino acids, peptides, and analogues
Formula: C4H9NO3
Exact mass: 119.05824
SMILES: N[C@@H](CCO)C(O)=O
InChI: InChI=1S/C4H9NO3/c5-3(1-2-6)4(7)8/h3,6H,1-2,5H2,(H,7,8)/t3-/m0/s1
Instrument: Thermo Scientific Q-Exactive Focus
Instrument type: LC-ESI-ITFT
Ms type: MS2
Ion mode: NEGATIVE
Ionization: ESI
Collision energy: 20
Column name: Acquity CSHC18
Retention time: 0.644 min
Base peak: 118.05097
Precursor m/z: 118.05097
Precursor type: [M-H]-
m/z	relative intensity
55.0178	972
56.2567	63
72.0079	168
72.0442	851
75.0677	69
86.553	64
98.0235	89
99.0075	999
100.9247	78
115.4872	73
