Mass spectrum: 5-Methoxyindoleacetate; LC-ESI-ITFT; MS2; CE: 60;  [M+H]+
Name: 5-Methoxyindoleacetate
Class: Organoheterocyclic compounds; Indoles and derivatives; Indolyl carboxylic acids and derivatives
Formula: C11H11NO3
Exact mass: 205.07389
SMILES: COC1=CC2=C(NC=C2CC(O)=O)C=C1
InChI: InChI=1S/C11H11NO3/c1-15-8-2-3-10-9(5-8)7(6-12-10)4-11(13)14/h2-3,5-6,12H,4H2,1H3,(H,13,14)
Instrument: Thermo Scientific Q-Exactive Focus
Instrument type: LC-ESI-ITFT
Ms type: MS2
Ion mode: POSITIVE
Ionization: ESI
Collision energy: 60
Column name: Acquity CSHC18
Retention time: 2.015 min
Base peak: 206.08118
Precursor m/z: 206.08118
Precursor type: [M+H]+
m/z	relative intensity
51.0235	66
53.0392	80
66.0469	124
89.039	999
90.0468	681
95.0494	183
103.0545	66
104.0497	156
116.0496	244
117.0575	916
