Mass spectrum: Cyanidin 3-O-rutinoside; LC-ESI-QTOF; MS2; CE: 7-62eV;  [M-H]-
Name: Cyanidin 3-O-rutinoside
Class: Phenolics
Formula: C27H30O15
Exact mass: 594.1585
SMILES: CC1C(C(C(C(O1)OCC2C(C(C(C(O2)OC3=C(OC4=CC(=O)C=C(C4=C3)O)C5=CC(=C(C=C5)O)O)O)O)O)O)O)O
InChI: InChI=1S/C27H30O15/c1-9-19(32)21(34)23(36)26(39-9)38-8-18-20(33)22(35)24(37)27(42-18)41-17-7-12-14(30)5-11(28)6-16(12)40-25(17)10-2-3-13(29)15(31)4-10/h2-7,9,18-24,26-27,29-37H,8H2,1H3
Instrument: Bruker MicrOTOF-Q
Instrument type: LC-ESI-QTOF
Ms type: MS2
Ion mode: NEGATIVE
Ionization: ESI
Collision energy: 7-62eV
Column name: Acquity CSHC18
Retention time: 32.604 min
Base peak: 593.1530
Precursor m/z: 593.1530
Precursor type: [M-H]-
Precursor intensity: 19151.06
m/z	relative intensity
109.0296	13
121.0257	14
125.0251	15
147.0261	15
148.016	16
149.0209	16
163.0003	17
171.0452	18
172.0504	18
174.0278	18
175.0249	18
177.0193	18
183.0444	18
184.0541	19
187.0391	20
188.051	21
189.057	21
195.0426	21
196.0493	21
199.0401	21
200.0481	23
201.0361	25
211.0456	25
212.0511	26
213.0544	26
214.0276	26
215.0356	27
216.0366	28
217.0539	29
218.0596	30
223.0424	32
227.0386	36
228.0384	37
229.0499	38
239.0389	43
240.0451	45
241.0435	45
242.0292	47
243.0318	49
255.042	49
256.0457	49
257.0464	56
258.049	63
267.0307	69
283.0277	69
284.0637	81
285.0641	105
286.0555	106
287.0379	107
297.0364	136
298.0429	146
299.0566	161
300.0611	214
327.0487	428
339.0456	616
593.1762	999
