Mass spectrum: Naringenin; LC-ESI-QTOF; MS2; CE: 50eV;  [M+H]+
Name: Naringenin
Class: Flavanone
Formula: C15H12O5
Exact mass: 272.0685
SMILES: C1C(OC2=CC(=CC(=C2C1=O)O)O)C3=CC=C(C=C3)O
InChI: InChI=1S/C15H12O5/c16-9-3-1-8(2-4-9)13-7-12(19)15-11(18)5-10(17)6-14(15)20-13/h1-6,13,16-18H,7H2
Instrument: TIMS-TOF Pro, Bruker Daltonik; Elute UHPLC System, Bruker Daltonik
Instrument type: LC-ESI-QTOF
Ms type: MS2
Ion mode: POSITIVE
Ionization: ESI
Collision energy: 50eV
Column name: Acquity CSHC18
Retention time: 7.336 min
Base peak: 273.0743
Precursor m/z: 273.0743
Precursor type: [M+H]+
Precursor intensity: 333510.1
m/z	relative intensity
34.6398	3
39.0209	5
41.0394	2
51.0228	1
54.6575	4
65.0365	2
67.0167	8
68.9976	28
74.9966	4
79.0172	2
91.0507	12
92.0588	5
95.0481	7
97.0274	6
100.3403	3
103.049	2
107.0492	15
109.0928	1
119.0217	2
119.0476	49
120.0538	4
121.0642	5
123.0449	12
139.7354	4
147.0437	432
148.0478	15
151.0299	1
152.7114	3
152.9585	2
152.9997	20
153.3689	5
154.0219	17
155.0239	6
157.0533	2
168.0562	2
174.0111	3
179.0323	2
189.0553	9
231.0635	12
249.5108	4
255.0625	6
272.9275	3
273.0297	6
273.0743	999
273.5438	5
