Mass spectrum: Ellagic acid; LC-ESI-QTOF; MS2; CE: 15.23;  [M+H]+
Name: Ellagic acid
Class: NA
Formula: C14H6O8
Exact mass: 302.0063
SMILES: C1=C2C3=C(C(=C1O)O)OC(=O)C4=CC(=C(C(=C43)OC2=O)O)O
InChI: InChI=1S/C14H6O8/c15-5-1-3-7-8-4(14(20)22-11(7)9(5)17)2-6(16)10(18)12(8)21-13(3)19/h1-2,15-18H
Instrument: Bruker MicrOTOF-Q
Instrument type: LC-ESI-QTOF
Ms type: MS2
Ion mode: POSITIVE
Ionization: ESI
Collision energy: 15.23
Column name: Acquity CSHC18
Retention time: NA
Base peak: 303.0135
Precursor m/z: 303.0135
Precursor type: [M+H]+
m/z	relative intensity
201.0196	2
229.0136	2
231.0291	6
241.0132	5
247.0246	4
257.0087	18
258.0128	2
259.0262	12
274.0047	3
275.0182	57
276.0233	5
285.0029	71
286.0032	7
302.006	27
302.7606	1
302.7754	1
303.0141	999
303.4818	1
304.0172	136
305.0189	4
