Mass spectrum: 4-HYDROXY-L-PHENYLGLYCINE; LC-ESI-QFT; MS2; CE: 30eV;  [M+H]+
Name: 4-HYDROXY-L-PHENYLGLYCINE
Class: NA
Formula: C8H9NO3
Exact mass: 167.05824
SMILES: C1=CC(=CC=C1C(C(=O)O)N)O
InChI: InChI=1S/C8H9NO3/c9-7(8(11)12)5-1-3-6(10)4-2-5/h1-4,7,10H,9H2,(H,11,12)
Instrument: Q-Exactive Orbitrap, Thermo Scientfic; Ultimate 3000 HPLC, Thermo Scientfic
Instrument type: LC-ESI-QFT
Ms type: MS2
Ion mode: POSITIVE
Ionization: ESI
Collision energy: 30eV
Column name: Acquity CSHC18
Retention time: 0.568 min
Base peak: 168.0655
Precursor m/z: 168.0655
Precursor type: [M+H]+
Precursor intensity: 165
m/z	relative intensity
51.1353	22
56.2351	21
57.1281	26
57.4438	26
66.7154	25
68.2076	24
72.4913	25
73.1834	30
76.2469	27
81.68	24
84.376	25
89.1636	26
89.9916	25
92.1422	33
93.0706	30
95.05	55
103.2578	28
104.7173	28
105.9636	112
107.0863	278
109.102	39
109.8227	25
115.9141	28
123.0446	261
123.081	25
123.1175	62
123.7263	31
123.9731	66
126.9725	127
127.9732	26
128.3749	26
129.2875	25
141.4314	33
144.9661	34
144.9831	63
151.0396	999
151.1123	145
152.0426	52
162.2546	27
163.4207	25
167.0557	31
167.1076	37
168.9407	69
189.6994	31
