Mass spectrum: 18:1(2R-OH) Ceramide; ESI-TOF; MS2; CE: 6.0000000;  [M+H]+
Name: 18:1(2R-OH) Ceramide
Class: NA
Formula: C36H69NO4
Exact mass: 579.52266
SMILES: [H]OC([H])([H])C([H])(N([H])C(=O)C([H])(O[H])C([H])([H])C([H])([H])C([H])([H])C([H])([H])C([H])([H])C([H])([H])C([H])=C([H])C([H])([H])C([H])([H])C([H])([H])C([H])([H])C([H])([H])C([H])([H])C([H])([H])C([H])([H])[H])C([H])(O[H])C([H])=C([H])C([H])([H])C([H])([H])C([H])([H])C([H])([H])C([H])([H])C([H])([H])C([H])([H])C([H])([H])C([H])([H])C([H])([H])C([H])([H])C([H])([H])C([H])([H])[H]
InChI: InChI=1S/C36H69NO4/c1-3-5-7-9-11-13-15-17-19-21-23-25-27-29-31-35(40)36(41)37-33(32-38)34(39)30-28-26-24-22-20-18-16-14-12-10-8-6-4-2/h17,19,28,30,33-35,38-40H,3-16,18,20-27,29,31-32H2,1-2H3,(H,37,41)
Instrument: waters xevo g2 TOF
Instrument type: ESI-TOF
Ms type: MS2
Ion mode: POSITIVE
Ionization: ESI
Collision energy: 6.0000000
Column name: Acquity CSHC18
Retention time: 10.813 min
Base peak: 580.53066
Precursor m/z: 580.53066
Precursor type: [M+H]+
m/z	relative intensity
145.0141	11
193.5907	19
216.9846	23
285.7328	114
291.7331	26
300.7374	23
301.2401	22
309.7423	144
310.2452	122
310.7458	16
331.2134	71
532.5068	6
544.5102	58
545.514	11
553.3696	26
562.5197	999
563.5242	421
564.5274	90
565.5279	14
566.9455	10
567.4419	3
580.5298	360
581.5341	263
