Mass spectrum: DL- 3-phenyllactic acid; LC-ESI-QTOF; MS2; CE: 15.00;  [M+Na]+
Name: DL- 3-phenyllactic acid
Class: NA
Formula: C9H10O3
Exact mass: 166.0630
SMILES: C1=CC=C(C=C1)CC(C(=O)O)O
InChI: InChI=1S/C9H10O3/c10-8(9(11)12)6-7-4-2-1-3-5-7/h1-5,8,10H,6H2,(H,11,12)
Instrument: Bruker MicrOTOF-Q
Instrument type: LC-ESI-QTOF
Ms type: MS2
Ion mode: POSITIVE
Ionization: ESI
Collision energy: 15.00
Column name: Acquity CSHC18
Retention time: NA
Base peak: 189.0522
Precursor m/z: 189.0522
Precursor type: [M+Na]+
m/z	relative intensity
79.99	17
91.05	34
102.98	11
103.05	999
103.18	12
104.06	90
105.06	13
107.05	100
108.05	12
121.06	260
122.07	25
123.08	12
