Mass spectrum: Ellagic acid; ESI-TOF; MS2; CE: 0.6458333;  [M+H]+
Name: Ellagic acid
Class: NA
Formula: C14H6O8
Exact mass: 302.00627
SMILES: OC1=C(O)C2=C3C(=C1)C(=O)OC1=C3C(=CC(O)=C1O)C(=O)O2
InChI: InChI=1S/C14H6O8/c15-5-1-3-7-8-4(14(20)22-11(7)9(5)17)2-6(16)10(18)12(8)21-13(3)19/h1-2,15-18H
Instrument: waters xevo g2 TOF
Instrument type: ESI-TOF
Ms type: MS2
Ion mode: POSITIVE
Ionization: ESI
Collision energy: 0.6458333
Column name: Acquity CSHC18
Retention time: 2.245 min
Base peak: 303.01427
Precursor m/z: 303.01427
Precursor type: [M+H]+
m/z	relative intensity
89.0244	289
93.0333	95
128.0793	44
137.9831	58
146.043	40
153.0494	35
160.9895	115
167.9849	32
184.9888	41
189.018	160
212.0135	67
214.0699	31
216.0068	27
222.1147	28
257.0081	55
273.0024	99
275.0186	140
285.0831	30
289.1643	39
300.9975	999
302.0035	116
303.0134	616
