Mass spectrum: N-ACETYLCYSTEINE; LC-ESI-QTOF; MS2; CE: 40;  [M-H]-
Name: N-ACETYLCYSTEINE
Class: NA
Formula: C5H9NO3S
Exact mass: 163.03031
SMILES: CC(=O)N[C@@H](CS)C(O)=O
InChI: InChI=1S/C5H9NO3S/c1-3(7)6-4(2-10)5(8)9/h4,10H,2H2,1H3,(H,6,7)(H,8,9)/t4-/m0/s1
Instrument: Agilent 6530Â Q-TOF LC/MS
Instrument type: LC-ESI-QTOF
Ms type: MS2
Ion mode: NEGATIVE
Ionization: ESI
Collision energy: 40
Column name: NA
Retention time: 0.200 min
Base peak: 162.02403
Precursor m/z: 162.02403
Precursor type: [M-H]-
Precursor intensity: 183
m/z	relative intensity
41.0092	208
41.9993	293
45.9785	391
57.0418	435
58.0358	624
64.1153	999
