Mass spectrum: Sinapoyl.glucoside; LC-ESI-ITFT; MS2; CE: 30;  [M+H]+
Name: Sinapoyl.glucoside
Class: NA
Formula: C17H22O10
Exact mass: 386.1213
SMILES: c1(cc(c(c(c1)OC)O)OC)/C=C/C(=O)O[C@@H]1O[C@@H]([C@H]([C@@H]([C@H]1O)O)O)CO
InChI: InChI=1S/C17H22O10/c1-24-9-5-8(6-10(25-2)13(9)20)3-4-12(19)27-17-16(23)15(22)14(21)11(7-18)26-17/h3-6,11,14-18,20-23H,7H2,1-2H3/b4-3+/t11-,14-,15+,16-,17+/m1/s1
Instrument: q exactive focus thermo
Instrument type: LC-ESI-ITFT
Ms type: MS2
Ion mode: POSITIVE
Ionization: ESI
Collision energy: 30
Column name: Acquity CSHC18
Retention time: 5.605 min
Base peak: 387.1297
Precursor m/z: 387.1297
Precursor type: [M+H]+
Precursor intensity: 3112084
m/z	relative intensity
101.0498	13
102.0512	14
103.042	17
104.0376	18
105.0394	19
107.0429	23
108.0474	24
109.0517	24
116.038	25
117.0456	28
118.0531	28
119.0675	33
121.0585	41
122.0489	49
123.0808	49
128.0565	63
129.0446	64
130.0519	68
132.0496	68
133.06	70
136.0499	72
145.0595	73
146.048	101
148.0613	106
171.1275	130
174.042	155
177.0031	173
209.0574	186
225.0459	492
296.0177	999
