Mass spectrum: Alpha-Terpineol; LC-ESI-QTOF; MS2; CE: 15.00;  [M-H2O+H]+
Name: Alpha-Terpineol
Class: NA
Formula: C10H18O
Exact mass: 154.1358
SMILES: CC1=CCC(CC1)C(C)(C)O
InChI: InChI=1S/C10H18O/c1-8-4-6-9(7-5-8)10(2,3)11/h4,9,11H,5-7H2,1-3H3
Instrument: Bruker MicrOTOF-Q
Instrument type: LC-ESI-QTOF
Ms type: MS2
Ion mode: POSITIVE
Ionization: ESI
Collision energy: 15.00
Column name: Acquity CSHC18
Retention time: NA
Base peak: 137.1325
Precursor m/z: 137.1325
Precursor type: [M-H2O+H]+
m/z	relative intensity
119.0764	81
122.1068	98
135.118	194
136.0155	98
137.1313	999
