Mass spectrum: GLUCOSAMINE 6-SULFATE; LC-ESI-QTOF; MS2; CE: 10;  [M+H]+
Name: GLUCOSAMINE 6-SULFATE
Class: NA
Formula: C6H13NO8S
Exact mass: 259.03619
SMILES: N[C@H]1[C@H](O)O[C@H](COS(O)(=O)=O)[C@@H](O)[C@@H]1O
InChI: InChI=1S/C6H13NO8S/c7-3-5(9)4(8)2(15-6(3)10)1-14-16(11,12)13/h2-6,8-10H,1,7H2,(H,11,12,13)/t2-,3-,4-,5-,6-/m1/s1
Instrument: Agilent 6530Â Q-TOF LC/MS
Instrument type: LC-ESI-QTOF
Ms type: MS2
Ion mode: POSITIVE
Ionization: ESI
Collision energy: 10
Column name: NA
Retention time: 0.200 min
Base peak: 260.04066
Precursor m/z: 260.04066
Precursor type: [M+H]+
Precursor intensity: 97.5
m/z	relative intensity
43.0161	104
60.0539	106
72.0589	115
84.0528	137
85.0303	152
98.0588	153
126.0534	174
144.0632	208
162.0908	295
206.0078	323
224.0215	364
242.0807	600
260.0768	999
