Mass spectrum: 3,4-DIHYDROXYBENZOATE; LC-ESI-QFT; MS2; CE: 30eV;  [M+H]+
Name: 3,4-DIHYDROXYBENZOATE
Class: NA
Formula: C7H6O4
Exact mass: 154.02661
SMILES: OC(=O)C1=CC(O)=C(O)C=C1
InChI: InChI=1S/C7H6O4/c8-5-2-1-4(7(10)11)3-6(5)9/h1-3,8-9H,(H,10,11)
Instrument: Q-Exactive Orbitrap, Thermo Scientfic; Ultimate 3000 HPLC, Thermo Scientfic
Instrument type: LC-ESI-QFT
Ms type: MS2
Ion mode: POSITIVE
Ionization: ESI
Collision energy: 30eV
Column name: Acquity CSHC18
Retention time: 1.786 min
Base peak: 155.0339
Precursor m/z: 155.0339
Precursor type: [M+H]+
Precursor intensity: 149
m/z	relative intensity
55.9345	2
81.0523	3
93.0522	4
108.9456	5
109.0653	14
111.0626	17
113.9524	29
131.9708	61
134.3854	68
150.9654	97
155.0736	199
156.04	999
