Mass spectrum: OPHTHALMATE; LC-ESI-QTOF; MS2; CE: 40;  [M+H]+
Name: OPHTHALMATE
Class: NA
Formula: C11H19N3O6
Exact mass: 289.12739
SMILES: CC[C@H](NC(=O)CC[C@H](N)C(O)=O)C(=O)NCC(O)=O
InChI: InChI=1S/C11H19N3O6/c1-2-7(10(18)13-5-9(16)17)14-8(15)4-3-6(12)11(19)20/h6-7H,2-5,12H2,1H3,(H,13,18)(H,14,15)(H,16,17)(H,19,20)/t6-,7-/m0/s1
Instrument: Agilent 6530Â Q-TOF LC/MS
Instrument type: LC-ESI-QTOF
Ms type: MS2
Ion mode: POSITIVE
Ionization: ESI
Collision energy: 40
Column name: NA
Retention time: 0.200 min
Base peak: 290.13852
Precursor m/z: 290.13852
Precursor type: [M+H]+
Precursor intensity: 75.5
m/z	relative intensity
41.0538	43
56.0624	44
58.0908	48
58.4058	54
68.046	65
76.0375	83
84.0701	83
96.0842	184
113.8658	218
123.0871	527
124.081	999
