Mass spectrum: Kynurenine; LC-ESI-QTOF; MS2; CE: 60;  [M-H]-
Name: Kynurenine
Class: NA
Formula: C10H12N2O3
Exact mass: 208.08479
SMILES: C1=CC=C(C(=C1)C(=O)CC(C(=O)O)N)N
InChI: InChI=1S/C10H12N2O3/c11-7-4-2-1-3-6(7)9(13)5-8(12)10(14)15/h1-4,8H,5,11-12H2,(H,14,15)
Instrument: impact II
Instrument type: LC-ESI-QTOF
Ms type: MS2
Ion mode: NEGATIVE
Ionization: ESI
Collision energy: 60
Column name: Acquity CSHC18
Retention time: 1.907 min
Base peak: 207.07760
Precursor m/z: 207.07760
Precursor type: [M-H]-
m/z	relative intensity
65.9986	194
92.0505	423
116.0503	171
144.0456	999
