Mass spectrum: Anthrone; LC-ESI-QTOF; MS2; CE: 35.00;  [M+H]+
Name: Anthrone
Class: NA
Formula: C14H10O
Exact mass: 194.0732
SMILES: C1C2=CC=CC=C2C(=O)C3=CC=CC=C31
InChI: InChI=1S/C14H10O/c15-14-12-7-3-1-5-10(12)9-11-6-2-4-8-13(11)14/h1-8H,9H2
Instrument: Bruker MicrOTOF-Q
Instrument type: LC-ESI-QTOF
Ms type: MS2
Ion mode: POSITIVE
Ionization: ESI
Collision energy: 35.00
Column name: Acquity CSHC18
Retention time: NA
Base peak: 195.0812
Precursor m/z: 195.0812
Precursor type: [M+H]+
m/z	relative intensity
115.0518	15
125.0374	1
126.0449	5
127.0536	5
128.0598	33
129.0621	2
139.0533	17
141.0693	15
142.0702	2
145.0622	2
149.0371	3
150.0459	56
151.0533	140
152.0611	255
153.0657	30
154.0671	3
161.0402	1
162.0473	2
163.0547	82
164.062	116
164.9907	2
165.0701	999
165.3714	1
166.0745	170
167.0794	13
168.0591	4
169.065	18
170.0681	1
174.0463	9
175.0545	19
176.0622	414
177.068	140
178.0772	177
179.0815	24
193.0654	29
194.0729	64
195.077	11
196.083	1
