Mass spectrum: Dihydrocaffeic acid; LC-ESI-ITFT; MS2; CE: 45eV;  [M-H]-
Name: Dihydrocaffeic acid
Class: phenolic acid
Formula: C9H10O4
Exact mass: 182.0579
SMILES: C1=CC(=C(C=C1CCC(=O)O)O)O
InChI: InChI=1S/C9H10O4/c10-7-3-1-6(5-8(7)11)2-4-9(12)13/h1,3,5,10-11H,2,4H2,(H,12,13)
Instrument: LTQ Orbitrap XL, Thermo Scientfic; Dionex Ultimate 300
Instrument type: LC-ESI-ITFT
Ms type: MS2
Ion mode: NEGATIVE
Ionization: ESI
Collision energy: 45eV
Column name: Alltima C18
Retention time: 12.49 min
Base peak: 181.0499
Precursor m/z: 181.0499
Precursor type: [M-H]-
m/z	relative intensity
95.0497	19
108.9524	999
121.0196	159
