Mass spectrum: 2-AMINOPHENOL; LC-ESI-QFT; MS2; CE: 30eV;  [M+H]+
Name: 2-AMINOPHENOL
Class: NA
Formula: C6H7NO
Exact mass: 109.05276
SMILES: C1=CC=C(C(=C1)N)O
InChI: InChI=1S/C6H7NO/c7-5-3-1-2-4-6(5)8/h1-4,8H,7H2
Instrument: Q-Exactive Orbitrap, Thermo Scientfic; Ultimate 3000 HPLC, Thermo Scientfic
Instrument type: LC-ESI-QFT
Ms type: MS2
Ion mode: POSITIVE
Ionization: ESI
Collision energy: 30eV
Column name: Acquity CSHC18
Retention time: 0.798 min
Base peak: 110.0600
Precursor m/z: 110.0600
Precursor type: [M+H]+
Precursor intensity: 132
m/z	relative intensity
53.8477	2
55.055	2
58.2182	1
62.6787	1
65.0393	209
66.0427	4
66.1739	1
67.055	13
68.0582	2
68.9528	3
69.0706	2
72.9427	1
76.1413	1
78.2957	1
78.4972	1
78.6458	1
81.0705	3
82.0658	22
83.1037	1
87.0047	4
88.0049	3
89.0027	1
92.0501	999
93.0341	86
93.0534	37
93.0702	2
109.0527	22
109.1016	8
111.0445	113
111.0576	8
111.0638	111
111.0807	4
112.0477	3
119.0852	2
