Mass spectrum: Kynurenine; LC-ESI-QTOF; MS2; CE: 60;  [M+H]+
Name: Kynurenine
Class: NA
Formula: C10H12N2O3
Exact mass: 208.08479
SMILES: C1=CC=C(C(=C1)C(=O)CC(C(=O)O)N)N
InChI: InChI=1S/C10H12N2O3/c11-7-4-2-1-3-6(7)9(13)5-8(12)10(14)15/h1-4,8H,5,11-12H2,(H,14,15)
Instrument: impact II
Instrument type: LC-ESI-QTOF
Ms type: MS2
Ion mode: POSITIVE
Ionization: ESI
Collision energy: 60
Column name: Acquity CSHC18
Retention time: 1.789 min
Base peak: 209.09250
Precursor m/z: 209.09250
Precursor type: [M+H]+
m/z	relative intensity
51.0235	107
65.0395	999
77.0387	130
91.0545	770
92.0497	297
117.0574	313
146.0597	103
