Mass spectrum: Prostaglandin A1 ethyl ester; ESI-TOF; MS2; CE: 6.0000000;  [M+H]+
Name: Prostaglandin A1 ethyl ester
Class: NA
Formula: C22H36O4
Exact mass: 364.26136
SMILES: CCCCCC(O)/C=C/[C@H]1C=CC(=O)C1CCCCCCC(=O)OCC
InChI: InChI=1S/C22H36O4/c1-3-5-8-11-19(23)16-14-18-15-17-21(24)20(18)12-9-6-7-10-13-22(25)26-4-2/h14-20,23H,3-13H2,1-2H3/b16-14+/t18-,19?,20?/m0/s1
Instrument: waters xevo g2 TOF
Instrument type: ESI-TOF
Ms type: MS2
Ion mode: POSITIVE
Ionization: ESI
Collision energy: 6.0000000
Column name: Acquity CSHC18
Retention time: 4.673 min
Base peak: 365.26936
Precursor m/z: 365.26936
Precursor type: [M+H]+
m/z	relative intensity
147.0395	7
161.1337	1
173.1338	41
174.1369	2
175.1339	1
179.09	14
187.1478	6
189.1278	2
193.1076	182
202.1119	24
209.1263	47
209.6219	4
213.6248	12
224.1244	11
245.1532	2
255.2107	8
265.1422	4
273.2213	20
274.2273	3
283.2056	68
284.2086	6
301.1356	999
302.22	403
303.2226	51
334.0847	2
347.1765	789
348.1782	202
349.2659	42
350.2663	3
