Mass spectrum: Equol; LC-ESI-ITFT; MS2; CE: 10;  [M+H]+
Name: Equol
Class: Phenylpropanoids and polyketides; Isoflavonoids; Isoflavans
Formula: C15H14O3
Exact mass: 242.09429
SMILES: OC1=CC=C(C=C1)[C@H]1COC2=CC(O)=CC=C2C1
InChI: InChI=1S/C15H14O3/c16-13-4-1-10(2-5-13)12-7-11-3-6-14(17)8-15(11)18-9-12/h1-6,8,12,16-17H,7,9H2/t12-/m1/s1
Instrument: Thermo Scientific Q-Exactive Focus
Instrument type: LC-ESI-ITFT
Ms type: MS2
Ion mode: POSITIVE
Ionization: ESI
Collision energy: 10
Column name: Acquity CSHC18
Retention time: NA
Base peak: 243.10156
Precursor m/z: 243.10156
Precursor type: [M+H]+
m/z	relative intensity
79.0546	2
95.0493	2
105.07	14
107.0493	599
121.0648	11
123.0441	999
133.0648	641
137.0595	24
149.0595	44
243.1012	343
