Mass spectrum: caffeic acid; LC-ESI-ITFT; MS2; CE: 0.3;  [M-H]-
Name: caffeic acid
Class: hydroxycinnamic acids
Formula: C9H8O4
Exact mass: 180.0423
SMILES: C1=CC(=C(C=C1C=CC(=O)O)O)O
InChI: InChI=1S/C9H8O4/c10-7-3-1-6(5-8(7)11)2-4-9(12)13/h1-5,10-11H,(H,12,13)
Instrument: LTQ-Orbitrap XL hybrid mass spectrometer (Thermo Scientific)
Instrument type: LC-ESI-ITFT
Ms type: MS2
Ion mode: NEGATIVE
Ionization: ESI
Collision energy: 0.3
Column name: Acquity CSHC18
Retention time: 3.925 min
Base peak: 179.0350
Precursor m/z: 179.0350
Precursor type: [M-H]-
Precursor intensity: 10116680
m/z	relative intensity
50.5391	2
53.8437	2
54.6484	2
58.3214	2
67.2762	2
70.7068	2
75.2899	2
81.2024	2
82.6408	2
83.3742	2
89.6354	2
89.8605	2
90.5252	2
90.5436	2
92.0192	2
94.661	2
97.9961	2
104.2229	2
106.8417	2
107.0442	3
112.3132	2
114.5493	2
117.9595	2
117.994	2
119.9292	2
122.5396	3
123.4216	2
124.3557	2
124.3619	2
125.0163	2
125.5992	3
126.0289	2
126.1132	2
128.1723	2
128.1789	2
132.0685	3
134.3656	4
134.6837	2
135.0151	7
135.0224	5
135.0455	999
135.0625	7
135.0698	6
135.0792	5
135.7301	3
138.6241	2
143.8563	2
144.6224	2
151.297	2
151.8266	2
154.9054	3
156.5764	2
157.9469	2
158.7642	3
161.5232	3
161.5306	3
161.8831	2
164.8903	2
165.8114	3
167.0638	6
173.6602	3
174.3522	2
174.3592	2
177.9989	4
178.3428	3
178.9948	4
179.0012	4
179.035	855
179.067	6
179.073	3
