Mass spectrum: SALICYLAMIDE; LC-ESI-QTOF; MS2; CE: 40;  [M+H]+
Name: SALICYLAMIDE
Class: NA
Formula: C7H7NO2
Exact mass: 137.04768
SMILES: NC(=O)C1=CC=CC=C1O
InChI: InChI=1S/C7H7NO2/c8-7(10)5-3-1-2-4-6(5)9/h1-4,9H,(H2,8,10)
Instrument: Agilent 6530Â Q-TOF LC/MS
Instrument type: LC-ESI-QTOF
Ms type: MS2
Ion mode: POSITIVE
Ionization: ESI
Collision energy: 40
Column name: NA
Retention time: 0.200 min
Base peak: 138.05712
Precursor m/z: 138.05712
Precursor type: [M+H]+
Precursor intensity: 62.5
m/z	relative intensity
40.0278	22
44.0262	29
51.0408	30
53.0105	32
62.0111	36
63.0216	41
65.0694	53
65.4838	61
66.0159	70
74.0212	78
75.028	99
76.0216	114
77.0545	121
93.0488	137
102.0405	213
121.0346	999
