Mass spectrum: (20R,22R,25R)-3beta-Acetoxy-22,26-acetimino-5alpha-cholestan-16beta,20-diol; APCI-ITFT; MS2; CE: 35 CID;  [M+H]+
Name: (20R,22R,25R)-3beta-Acetoxy-22,26-acetimino-5alpha-cholestan-16beta,20-diol
Class: NA
Formula: C31H51NO5
Exact mass: 517.37672
SMILES: C[C@@H](CN1C(C)=O)CC[C@@H]1[C@](C)(O)[C@H]2[C@@H](O)C[C@@]3([H])[C@]4([H])CC[C@@]5([H])C[C@@H](OC(C)=O)CC[C@]5(C)[C@@]4([H])CC[C@]23C
InChI: InChI=1S/C31H51NO5/c1-18-7-10-27(32(17-18)19(2)33)31(6,36)28-26(35)16-25-23-9-8-21-15-22(37-20(3)34)11-13-29(21,4)24(23)12-14-30(25,28)5/h18,21-28,35-36H,7-17H2,1-6H3/t18-,21+,22+,23-,24+,25+,26+,27-,28+,29+,30+,31+/m1/s1
Instrument: Orbitrap Elite
Instrument type: APCI-ITFT
Ms type: MS2
Ion mode: POSITIVE
Ionization: APCI
Collision energy: 35 CID
Column name: Acquity CSHC18
Retention time: 0.242 min
Base peak: 518.38320
Precursor m/z: 518.38320
Precursor type: [M+H]+
Precursor intensity: 1087713000
m/z	relative intensity
315.2332	5
458.3608	40
482.3634	171
500.3687	999
