Mass spectrum: Budlein A isobutyrate; LC-ESI-ITFT; MS2; CE: 50eV;  [M+H]+
Name: Budlein A isobutyrate
Class: Sesquiterpenelactone; Heliangolide
Formula: C19H22O7
Exact mass: 362.1366
SMILES: CC(C)C(=O)O[C@@H]1C[C@@]2(C(=O)C=C(O2)/C(=C\[C@@H]3[C@@H]1C(=C)C(=O)O3)/CO)C
InChI: InChI=1S/C19H22O7/c1-9(2)17(22)25-14-7-19(4)15(21)6-12(26-19)11(8-20)5-13-16(14)10(3)18(23)24-13/h5-6,9,13-14,16,20H,3,7-8H2,1-2,4H3/b11-5-/t13-,14-,16+,19-/m1/s1
Instrument: Q Exactive Plus, ThermoFisher Scientific
Instrument type: LC-ESI-ITFT
Ms type: MS2
Ion mode: POSITIVE
Ionization: ESI
Collision energy: 50eV
Column name: Acquity CSHC18
Retention time: 5.321 min
Base peak: 363.1443
Precursor m/z: 363.1443
Precursor type: [M+H]+
Precursor intensity: 150965200
m/z	relative intensity
68.7381	453
137.0418	474
145.0829	504
157.0824	990
173.0777	999
