Mass spectrum: BW 245C; ESI-TOF; MS2; CE: 0.6458333;  [M+H]+
Name: BW 245C
Class: NA
Formula: C19H32N2O5
Exact mass: 368.23112
SMILES: O=C(N1[H])[C@H](CCCCCCC(O)=O)N(CCC(O)C2CCCCC2)C1=O
InChI: InChI=1S/C19H32N2O5/c22-16(14-8-4-3-5-9-14)12-13-21-15(18(25)20-19(21)26)10-6-1-2-7-11-17(23)24/h14-16,22H,1-13H2,(H,23,24)(H,20,25,26)/t15-,16?/m0/s1
Instrument: waters xevo g2 TOF
Instrument type: ESI-TOF
Ms type: MS2
Ion mode: POSITIVE
Ionization: ESI
Collision energy: 0.6458333
Column name: Acquity CSHC18
Retention time: 3.341 min
Base peak: 369.23912
Precursor m/z: 369.23912
Precursor type: [M+H]+
m/z	relative intensity
67.0536	29
79.0566	44
81.0708	463
93.0707	89
99.0213	59
112.1137	253
113.0358	944
121.0831	753
122.107	49
123.1175	187
124.1141	140
133.1011	124
139.0509	141
140.1078	161
152.1083	148
153.0667	107
165.0649	47
167.0812	229
170.1172	111
183.1127	88
195.1029	43
197.1288	81
205.0951	69
211.1091	999
213.1215	94
225.1208	501
241.119	52
244.2068	159
253.1533	91
267.1013	58
275.2771	39
283.0383	829
315.2065	577
316.2089	80
333.2179	969
339.0647	294
351.2274	138
