Mass spectrum: Homo-L-arginine; ESI-TOF; MS2; CE: 0.6458333;  [M+H]+
Name: Homo-L-arginine
Class: NA
Formula: C7H16N4O2
Exact mass: 188.12733
SMILES: NC(CCCCNC(N)=N)C(O)=O
InChI: InChI=1S/C7H16N4O2/c8-5(6(12)13)3-1-2-4-11-7(9)10/h5H,1-4,8H2,(H,12,13)(H4,9,10,11)
Instrument: waters xevo g2 TOF
Instrument type: ESI-TOF
Ms type: MS2
Ion mode: POSITIVE
Ionization: ESI
Collision energy: 0.6458333
Column name: Acquity CSHC18
Retention time: 0.488 min
Base peak: 189.13533
Precursor m/z: 189.13533
Precursor type: [M+H]+
m/z	relative intensity
67.0551	33
69.071	9
72.9376	16
74.0239	4
82.0656	30
84.0813	999
85.0653	124
86.0964	80
90.9034	7
97.0759	22
99.0927	10
100.9742	16
109.0762	25
111.0914	14
112.0763	19
116.9677	6
126.1027	140
127.0876	11
129.1021	7
130.0866	219
131.0899	11
131.93	11
133.9277	5
144.1134	866
145.1162	66
147.1129	4
155.0808	10
169.0174	6
172.1084	146
173.1109	10
189.135	317
190.1368	25
