Mass spectrum: Pyrocatechol; LC-ESI-ITFT; MS2; CE: 100;  [M-H]-
Name: Pyrocatechol
Class: Benzenoids; Phenols; Benzenediols
Formula: C6H6O2
Exact mass: 110.03678
SMILES: OC1=CC=CC=C1O
InChI: InChI=1S/C6H6O2/c7-5-3-1-2-4-6(5)8/h1-4,7-8H
Instrument: Thermo Scientific Q-Exactive Focus
Instrument type: LC-ESI-ITFT
Ms type: MS2
Ion mode: NEGATIVE
Ionization: ESI
Collision energy: 100
Column name: Acquity CSHC18
Retention time: 2.582 min
Base peak: 109.02950
Precursor m/z: 109.02950
Precursor type: [M-H]-
m/z	relative intensity
53.3206	720
55.4251	772
56.2074	810
56.8438	711
58.8005	835
72.1459	801
103.6152	999
110.5071	788
119.1694	773
126.6322	869
