Mass spectrum: MALONATE; LC-ESI-QTOF; MS2; CE: 40;  [M-H]-
Name: MALONATE
Class: NA
Formula: C3H4O4
Exact mass: 104.01096
SMILES: OC(=O)CC(O)=O
InChI: InChI=1S/C3H4O4/c4-2(5)1-3(6)7/h1H2,(H,4,5)(H,6,7)
Instrument: Agilent 6530Â Q-TOF LC/MS
Instrument type: LC-ESI-QTOF
Ms type: MS2
Ion mode: NEGATIVE
Ionization: ESI
Collision energy: 40
Column name: NA
Retention time: 0.200 min
Base peak: 103.00382
Precursor m/z: 103.00382
Precursor type: [M-H]-
Precursor intensity: 129
m/z	relative intensity
41.0167	999
