Mass spectrum: Muldamine; ESI-QTOF; MS2; CE: 1, 35, 60;  [M+H]+
Name: Muldamine
Class: steroidal alkaloid
Formula: C29H47NO3
Exact mass: 457.3556
SMILES: CC1CCC(NC1)C(C)C2C(CC3C2(CCC4C3CC=C5C4(CCC(C5)O)C)C)OC(=O)C
InChI: InChI=1S/C29H47NO3/c1-17-6-9-25(30-16-17)18(2)27-26(33-19(3)31)15-24-22-8-7-20-14-21(32)10-12-28(20,4)23(22)11-13-29(24,27)5/h7,17-18,21-27,30,32H,6,8-16H2,1-5H3
Instrument: AB Sciex TripleToF 5500
Instrument type: ESI-QTOF
Ms type: MS2
Ion mode: POSITIVE
Ionization: ESI
Collision energy: 1, 35, 60
Column name: Acquity CSHC18
Retention time: 8.072 min
Base peak: 458.3633
Precursor m/z: 458.3633
Precursor type: [M+H]+
Precursor intensity: 2695998
m/z	relative intensity
67.0508	109
142.072	543
271.1986	821
460.0611	999
