Mass spectrum: L-Histidinol; LC-ESI-ITFT; MS2; CE: 20;  [M+H]+
Name: L-Histidinol
Class: Organic nitrogen compounds; Organonitrogen compounds; Amines
Formula: C6H11N3O
Exact mass: 141.09021
SMILES: N[C@H](CO)CC1=CN=CN1
InChI: InChI=1S/C6H11N3O/c7-5(3-10)1-6-2-8-4-9-6/h2,4-5,10H,1,3,7H2,(H,8,9)/t5-/m0/s1
Instrument: Thermo Scientific Q-Exactive Focus
Instrument type: LC-ESI-ITFT
Ms type: MS2
Ion mode: POSITIVE
Ionization: ESI
Collision energy: 20
Column name: Acquity CSHC18
Retention time: 0.630 min
Base peak: 142.09749
Precursor m/z: 142.09749
Precursor type: [M+H]+
m/z	relative intensity
54.0344	24
60.0449	61
80.0499	16
81.0451	999
82.0529	18
83.0607	79
95.0606	245
107.0606	27
124.0869	89
125.071	32
