Mass spectrum: Syringetin; LC-ESI-QTOF; MS2; CE: 50eV;  [M-H]-
Name: Syringetin
Class: Flavonol
Formula: C17H14O8
Exact mass: 346.0689
SMILES: COC1=CC(=CC(=C1O)OC)C2=C(C(=O)C3=C(C=C(C=C3O2)O)O)O
InChI: InChI=1S/C17H14O8/c1-23-11-3-7(4-12(24-2)14(11)20)17-16(22)15(21)13-9(19)5-8(18)6-10(13)25-17/h3-6,18-20,22H,1-2H3
Instrument: TIMS-TOF Pro, Bruker Daltonik; Elute UHPLC System, Bruker Daltonik
Instrument type: LC-ESI-QTOF
Ms type: MS2
Ion mode: NEGATIVE
Ionization: ESI
Collision energy: 50eV
Column name: Acquity CSHC18
Retention time: 7.504 min
Base peak: 345.0562
Precursor m/z: 345.0562
Precursor type: [M-H]-
Precursor intensity: 65234
m/z	relative intensity
49.4774	2
63.0224	13
64.0265	3
65.7206	4
75.0246	3
80.0203	3
83.0126	22
89.4136	3
95.0105	3
103.052	2
107.0108	16
108.0195	8
109.028	9
111.0342	2
117.0312	10
119.013	4
121.0271	5
123.0091	4
125.0213	6
127.3273	2
131.0476	17
132.0169	3
133.026	6
135.0083	11
136.653	3
138.0315	4
141.0366	3
143.0482	25
144.1819	3
147.0397	7
149.004	3
151.0027	27
152.0119	4
156.8811	4
158.0326	5
159.0431	33
159.6402	2
161.0238	8
162.9986	17
164.0026	5
164.5827	2
165.5469	2
167.0373	6
167.488	9
168.5733	3
169.3931	6
171.0429	15
172.1872	3
173.0366	4
174.2396	2
175.0334	4
176.0445	4
177.0124	8
177.7999	4
180.2894	3
183.2314	2
184.8935	3
186.023	2
187.0373	18
188.0435	6
188.9505	8
190.6775	4
193.0099	3
195.3917	4
201.0166	6
203.0313	82
204.0323	10
204.8304	4
210.5976	4
215.03	12
216.0369	5
217.016	4
227.4587	2
231.0253	21
232.0281	7
234.6534	4
243.0258	5
246.8779	5
258.0457	3
259.0243	16
260.0225	8
271.0131	5
286.0051	3
287.0166	19
288.0192	5
312.0205	2
315.0077	227
315.2148	2
315.3016	3
316.0159	28
329.0152	4
330.0313	760
330.1401	4
330.335	4
330.5384	3
330.6159	3
331.0346	85
331.2785	3
332.0365	25
332.2262	3
332.9853	2
344.0406	16
344.5906	2
344.7165	2
344.7985	2
344.86	2
344.9244	3
345.0269	999
345.1704	3
345.363	5
