Mass spectrum: Di-feruloyl-spermidine; LC-ESI-QTOF; MS2; CE: 35eV;  [M+H]+
Name: Di-feruloyl-spermidine
Class: Phenolic-polyamine conjugate
Formula: C27H35N3O6
Exact mass: 497.2526
SMILES: Oc1ccc(cc1OC)/C=C/C(=O)NCCCNCCCCNC(=O)/C=C/c1ccc(O)c(OC)c1
InChI: InChI=1S/C27H35N3O6/c1-35-24-18-20(6-10-22(24)31)8-12-26(33)29-16-4-3-14-28-15-5-17-30-27(34)13-9-21-7-11-23(32)25(19-21)36-2/h6-13,18-19,28,31-32H,3-5,14-17H2,1-2H3,(H,29,33)(H,30,34)/b12-8+,13-9+
Instrument: Impact II qTOF
Instrument type: LC-ESI-QTOF
Ms type: MS2
Ion mode: POSITIVE
Ionization: ESI
Collision energy: 35eV
Column name: Acquity CSH C18 column (particle size 1.7 μm, column length 2.1 × 50 mm) (Waters)
Retention time: 9.08 min
Base peak: 498.2589
Precursor m/z: 498.2589
Precursor type: [M+H]+
m/z	relative intensity
145.0286	44
146.1645	43
177.0548	999
234.1127	454
235.1163	61
305.1863	99
322.2124	373
323.2162	69
498.2589	87
