Mass spectrum: Fraxetin; LC-ESI-ITFT; MS2; CE: 45eV;  [M+H]+
Name: Fraxetin
Class: coumarin
Formula: C10H8O5
Exact mass: 208.0372
SMILES: COC1=C(C(=C2C(=C1)C=CC(=O)O2)O)O
InChI: InChI=1S/C10H8O5/c1-14-6-4-5-2-3-7(11)15-10(5)9(13)8(6)12/h2-4,12-13H,1H3
Instrument: LTQ Orbitrap XL, Thermo Scientfic; Dionex Ultimate 300
Instrument type: LC-ESI-ITFT
Ms type: MS2
Ion mode: POSITIVE
Ionization: ESI
Collision energy: 45eV
Column name: Alltima C18
Retention time: 14.78 min
Base peak: 209.0435
Precursor m/z: 209.0435
Precursor type: [M+H]+
m/z	relative intensity
89.0942	2
133.3261	9
137.0136	8
153.0178	174
166.8183	2
176.9032	452
193.9021	999
