Mass spectrum: Heraclenin; LC-ESI-ITFT; MS2; CE: 45eV;  [M+H]+
Name: Heraclenin
Class: coumarin
Formula: C16H14O5
Exact mass: 286.0841
SMILES: CC1(C(O1)COC2=C3C(=CC4=C2OC=C4)C=CC(=O)O3)C
InChI: InChI=1S/C16H14O5/c1-16(2)11(21-16)8-19-15-13-10(5-6-18-13)7-9-3-4-12(17)20-14(9)15/h3-7,11H,8H2,1-2H3
Instrument: LTQ Orbitrap XL, Thermo Scientfic; Dionex Ultimate 300
Instrument type: LC-ESI-ITFT
Ms type: MS2
Ion mode: POSITIVE
Ionization: ESI
Collision energy: 45eV
Column name: Alltima C18
Retention time: 13.83 min
Base peak: 287.0905
Precursor m/z: 287.0905
Precursor type: [M+H]+
m/z	relative intensity
177.0764	3
199.116	117
226.9981	108
241.0745	999
257.0348	90
