Mass spectrum: L-Threonine; ESI-TOF; MS2; CE: 6.0000000;  [M+H]+
Name: L-Threonine
Class: NA
Formula: C4H9NO3
Exact mass: 119.05824
SMILES: CC(O)C(N)C(O)=O
InChI: InChI=1S/C4H9NO3/c1-2(6)3(5)4(7)8/h2-3,6H,5H2,1H3,(H,7,8)
Instrument: waters xevo g2 TOF
Instrument type: ESI-TOF
Ms type: MS2
Ion mode: POSITIVE
Ionization: ESI
Collision energy: 6.0000000
Column name: Acquity CSHC18
Retention time: 0.521 min
Base peak: 120.06624
Precursor m/z: 120.06624
Precursor type: [M+H]+
m/z	relative intensity
74.0608	122
98.9621	18
99.9698	105
102.0736	356
102.1279	53
106.992	5
114.971	74
114.9714	46
120.0662	999
121.0694	42
122.0711	8
128.9859	31
128.9866	19
131.9507	66
131.9511	43
131.9514	34
139.9646	18
142.0478	39
143.9593	294
145.9547	98
175.964	21
178.995	6
182.985	135
189.0173	6
194.1168	11
203.9843	43
204.9916	15
246.8633	12
248.0068	35
287.8894	9
