Mass spectrum: methylcrotonyl-CoA; LC-ESI-QTOF; MS2; CE: -10, -35, -60V;  [M-H]-
Name: methylcrotonyl-CoA
Class: NA
Formula: C26H42N7O17P3S
Exact mass: 849.1571
SMILES: CC=C(C)C(=O)SCCNC(=O)CCNC(=O)C(C(C)(C)COP(=O)(O)OP(=O)(O)OCC1C(C(C(O1)N2C=NC3=C(N=CN=C32)N)O)OP(=O)(O)O)O
InChI: InChI=1S/C26H42N7O17P3S/c1-5-14(2)25(38)54-9-8-28-16(34)6-7-29-23(37)20(36)26(3,4)11-47-53(44,45)50-52(42,43)46-10-15-19(49-51(39,40)41)18(35)24(48-15)33-13-32-17-21(27)30-12-31-22(17)33/h5,12-13,15,18-20,24,35-36H,6-11H2,1-4H3,(H,28,34)(H,29,37)(H,42,43)(H,44,45)(H2,27,30,31)(H2,39,40,41)
Instrument: TripleToF 5600; Sciex
Instrument type: LC-ESI-QTOF
Ms type: MS2
Ion mode: NEGATIVE
Ionization: ESI
Collision energy: -10, -35, -60V
Column name: Acquity CSHC18
Retention time: 18.266 min
Base peak: 848.1627
Precursor m/z: 848.1627
Precursor type: [M-H]-
Precursor intensity: 138892
m/z	relative intensity
78.9596	60
96.9748	10
134.0517	47
158.9273	114
176.9412	9
211.0048	1
254.9487	7
260.9908	9
270.9773	14
272.9608	94
273.9692	6
290.9707	11
305.1042	3
310.0356	6
328.0465	77
334.9058	5
339.0805	50
340.0794	7
346.0563	33
352.9493	3
357.0825	14
357.0905	14
367.0554	2
385.0582	4
401.04	3
408.0186	291
409.0201	59
419.0442	17
421.1245	56
423.114	5
426.0256	192
427.0284	29
439.1312	10
483.074	12
483.0926	12
487.9885	15
501.0974	177
502.0996	42
503.087	15
505.9914	4
510.0831	10
519.1003	52
520.1107	10
618.0426	5
713.1011	16
750.1887	9
768.1926	107
769.1985	34
770.1932	11
830.1464	11
845.4766	5
846.4373	1
847.4438	1
848.1466	999
