Mass spectrum: 4-Aminohippuric acid; LC-ESI-ITFT; MS2; CE: 10;  [M-H]-
Name: 4-Aminohippuric acid
Class: Benzenoids; Benzene and substituted derivatives; Benzoic acids and derivatives
Formula: C9H10N2O3
Exact mass: 194.06914
SMILES: NC1=CC=C(C=C1)C(=O)NCC(O)=O
InChI: InChI=1S/C9H10N2O3/c10-7-3-1-6(2-4-7)9(14)11-5-8(12)13/h1-4H,5,10H2,(H,11,14)(H,12,13)
Instrument: Thermo Scientific Q-Exactive Focus
Instrument type: LC-ESI-ITFT
Ms type: MS2
Ion mode: NEGATIVE
Ionization: ESI
Collision energy: 10
Column name: Acquity CSHC18
Retention time: 0.365 min
Base peak: 193.06187
Precursor m/z: 193.06187
Precursor type: [M-H]-
m/z	relative intensity
72.6739	2
90.9323	2
92.0493	171
95.7681	2
142.1314	2
147.0553	15
149.071	599
175.0502	3
190.8634	2
193.0611	999
