Mass spectrum: L-Tyrosine; ESI-TOF; MS2; CE: 6.0000000;  [M+H]+
Name: L-Tyrosine
Class: NA
Formula: C9H11NO3
Exact mass: 181.07389
SMILES: NC(CC1=CC=C(O)C=C1)C(O)=O
InChI: InChI=1S/C9H11NO3/c10-8(9(12)13)5-6-1-3-7(11)4-2-6/h1-4,8,11H,5,10H2,(H,12,13)
Instrument: waters xevo g2 TOF
Instrument type: ESI-TOF
Ms type: MS2
Ion mode: POSITIVE
Ionization: ESI
Collision energy: 6.0000000
Column name: Acquity CSHC18
Retention time: 0.581 min
Base peak: 182.08189
Precursor m/z: 182.08189
Precursor type: [M+H]+
m/z	relative intensity
91.0553	5
102.1284	18
114.9588	20
114.9718	13
119.0499	165
120.0535	11
121.0656	7
123.0449	331
124.0479	16
130.0088	6
130.0095	9
131.9311	7
136.0764	999
137.0791	101
138.99	19
145.0177	6
147.0449	358
148.0485	36
165.0553	946
166.0585	75
174.9551	2
182.0817	380
183.0849	43
191.014	16
194.1193	3
201.0092	2
208.9432	5
234.9936	8
258.1695	10
