Mass spectrum: 3-Nitrotyrosine; LC-ESI-ITFT; MS2; CE: 30;  [M+H]+
Name: 3-Nitrotyrosine
Class: Organic acids and derivatives; Carboxylic acids and derivatives; Amino acids, peptides, and analogues
Formula: C9H10N2O5
Exact mass: 226.05897
SMILES: N[C@@H](CC1=CC=C(O)C(=C1)[N+]([O-])=O)C(O)=O
InChI: InChI=1S/C9H10N2O5/c10-6(9(13)14)3-5-1-2-8(12)7(4-5)11(15)16/h1-2,4,6,12H,3,10H2,(H,13,14)/t6-/m0/s1
Instrument: Thermo Scientific Q-Exactive Focus
Instrument type: LC-ESI-ITFT
Ms type: MS2
Ion mode: POSITIVE
Ionization: ESI
Collision energy: 30
Column name: Acquity CSHC18
Retention time: 0.914 min
Base peak: 227.06625
Precursor m/z: 227.06625
Precursor type: [M+H]+
m/z	relative intensity
65.039	502
80.0498	322
90.0341	813
93.0337	469
104.0496	442
105.0575	410
117.0448	999
148.0391	474
168.029	379
181.0606	360
