Mass spectrum: Pantothenic acid; ESI-TOF; MS2; CE: 6.0000000;  [M+H]+
Name: Pantothenic acid
Class: NA
Formula: C9H17NO5
Exact mass: 219.11067
SMILES: CC(C)(CO)C(O)C(=O)NCCC(O)=O
InChI: InChI=1S/C9H17NO5/c1-9(2,5-11)7(14)8(15)10-4-3-6(12)13/h7,11,14H,3-5H2,1-2H3,(H,10,15)(H,12,13)
Instrument: waters xevo g2 TOF
Instrument type: ESI-TOF
Ms type: MS2
Ion mode: POSITIVE
Ionization: ESI
Collision energy: 6.0000000
Column name: Acquity CSHC18
Retention time: 1.700 min
Base peak: 220.11867
Precursor m/z: 220.11867
Precursor type: [M+H]+
m/z	relative intensity
90.0558	15
96.9614	15
113.9643	16
116.0347	40
131.0697	3
137.9882	150
138.9903	8
142.0872	10
166.0873	10
172.097	4
174.1131	28
175.1146	2
184.0975	238
185.1008	24
202.1081	383
203.1118	40
220.1188	999
221.1217	165
