Mass spectrum: ANILINE; LC-ESI-QFT; MS2; CE: 30eV;  [M+H]+
Name: ANILINE
Class: NA
Formula: C6H7N
Exact mass: 93.05785
SMILES: NC1=CC=CC=C1
InChI: InChI=1S/C6H7N/c7-6-4-2-1-3-5-6/h1-5H,7H2
Instrument: Q-Exactive Orbitrap, Thermo Scientfic; Ultimate 3000 HPLC, Thermo Scientfic
Instrument type: LC-ESI-QFT
Ms type: MS2
Ion mode: POSITIVE
Ionization: ESI
Collision energy: 30eV
Column name: Acquity CSHC18
Retention time: 4.324 min
Base peak: 94.0651
Precursor m/z: 94.0651
Precursor type: [M+H]+
Precursor intensity: 193
m/z	relative intensity
54.4381	26
58.3315	26
65.287	36
67.0549	206
67.7894	31
68.8445	32
71.3197	31
74.0331	36
75.0266	43
82.2926	32
85.5997	35
91.0548	156
93.0371	51
93.0704	82
94.0657	999
95.0167	137
95.0497	394
95.0862	285
99.6294	34
105.0453	83
