Mass spectrum: DL-2-Aminooctanoic acid; ESI-TOF; MS2; CE: 0.6458333;  [M+H]+
Name: DL-2-Aminooctanoic acid
Class: NA
Formula: C8H17NO2
Exact mass: 159.12593
SMILES: CCCCCCC(N)C(O)=O
InChI: InChI=1S/C8H17NO2/c1-2-3-4-5-6-7(9)8(10)11/h7H,2-6,9H2,1H3,(H,10,11)
Instrument: waters xevo g2 TOF
Instrument type: ESI-TOF
Ms type: MS2
Ion mode: POSITIVE
Ionization: ESI
Collision energy: 0.6458333
Column name: Acquity CSHC18
Retention time: 2.189 min
Base peak: 160.13393
Precursor m/z: 160.13393
Precursor type: [M+H]+
m/z	relative intensity
55.0555	43
67.055	43
69.0708	101
73.0656	5
74.9532	6
82.9819	7
95.0863	7
97.1019	367
98.1054	1
109.9821	21
111.0446	21
113.0963	1
114.2202	999
115.0163	137
116.1347	1
120.9965	9
126.1286	33
128.9866	1
131.9715	6
136.5575	1
137.9823	1
139.0084	31
148.0872	1
151.9931	13
154.9796	12
156.5319	1
158.1182	1
159.1493	1
160.1339	73
161.137	1
162.1387	1
167.0393	32
169.0496	11
170.0887	6
171.0171	17
172.9778	1
179.987	6
182.0254	37
183.1187	5
184.1143	11
200.1666	18
204.0975	313
205.1005	18
213.0142	6
218.1113	15
220.0947	24
221.0299	5
224.0869	1
225.9085	1
231.0368	1
238.9982	1
244.0856	1
245.0668	98
245.5735	1
246.1707	1
249.1337	1
255.1461	1
257.0824	13
258.0214	20
259.0765	32
271.0713	122
272.1187	22
273.0833	174
276.0643	1
281.0802	1
282.1757	89
283.1472	12
285.0827	27
286.0874	1
303.0514	1
305.0553	1
307.0028	1
309.0017	9
313.0353	5
325.0276	1
328.1819	12
331.0817	1
345.1512	1
350.1804	10
357.2054	61
358.0343	1
372.1731	1
375.1793	1
377.1779	1
395.1668	17
400.9856	1
415.2527	1
418.1482	29
456.1978	1
461.9953	1
465.928	1
475.3214	15
516.3346	1
531.284	15
532.3033	1
553.2786	1
566.2994	8
570.3144	1
574.3801	1
590.0911	1
603.1024	1
734.3904	1
735.3813	1
759.3573	9
