Mass spectrum: Indole-3-butyric acid; LC-ESI-QTOF; MS2; CE: 15.00;  [M+H]+
Name: Indole-3-butyric acid
Class: NA
Formula: C12H13NO2
Exact mass: 203.0946
SMILES: C1=CC=C2C(=C1)C(=CN2)CCCC(=O)O
InChI: InChI=1S/C12H13NO2/c14-12(15)7-3-4-9-8-13-11-6-2-1-5-10(9)11/h1-2,5-6,8,13H,3-4,7H2,(H,14,15)
Instrument: Bruker MicrOTOF-Q
Instrument type: LC-ESI-QTOF
Ms type: MS2
Ion mode: POSITIVE
Ionization: ESI
Collision energy: 15.00
Column name: Acquity CSHC18
Retention time: NA
Base peak: 204.1019
Precursor m/z: 204.1019
Precursor type: [M+H]+
m/z	relative intensity
60.16	24
99.4	24
136.25	24
139.45	24
143.07	24
144.08	24
150.35	24
152.26	24
156.08	72
157.09	48
158.09	972
159.1	267
160.1	48
163.27	24
166.06	145
167.755	683
169.25	498
170.08	72
171.06	24
171.51	24
175.14	24
175.97	24
177.85	24
184.08	97
186.8507	999
192.46	24
194.2	24
203.09	24
204.265	206
205.1	48
269.08	24
297.72	24
305.69	24
331.73	24
509.6	24
