Mass spectrum: TRYPTOPHAN; LC-ESI-QTOF; MS2; CE: 10;  [M-H]-
Name: TRYPTOPHAN
Class: NA
Formula: C11H12N2O2
Exact mass: 204.08988
SMILES: N[C@H](CC1=CNC2=CC=CC=C12)C(O)=O
InChI: InChI=1S/C11H12N2O2/c12-9(11(14)15)5-7-6-13-10-4-2-1-3-8(7)10/h1-4,6,9,13H,5,12H2,(H,14,15)/t9-/m1/s1
Instrument: Agilent 6530Â Q-TOF LC/MS
Instrument type: LC-ESI-QTOF
Ms type: MS2
Ion mode: NEGATIVE
Ionization: ESI
Collision energy: 10
Column name: NA
Retention time: 0.200 min
Base peak: 203.08730
Precursor m/z: 203.08730
Precursor type: [M-H]-
Precursor intensity: 189
m/z	relative intensity
74.0376	109
116.0709	238
117.0522	310
142.0757	497
159.1026	723
203.1064	999
