Mass spectrum: Luteolin 7-methyl ether; LC-ESI-QTOF; MS2; CE: 50eV;  [M+H]+
Name: Luteolin 7-methyl ether
Class: Flavone
Formula: C16H12O6
Exact mass: 300.0634
SMILES: COC1=CC(=C2C(=C1)OC(=CC2=O)C3=CC(=C(C=C3)O)O)O
InChI: InChI=1S/C16H12O6/c1-21-9-5-12(19)16-13(20)7-14(22-15(16)6-9)8-2-3-10(17)11(18)4-8/h2-7,17-19H,1H3
Instrument: TIMS-TOF Pro, Bruker Daltonik; Elute UHPLC System, Bruker Daltonik
Instrument type: LC-ESI-QTOF
Ms type: MS2
Ion mode: POSITIVE
Ionization: ESI
Collision energy: 50eV
Column name: Acquity CSHC18
Retention time: 8.197 min
Base peak: 301.0685
Precursor m/z: 301.0685
Precursor type: [M+H]+
Precursor intensity: 173720.9
m/z	relative intensity
21.9084	2
55.0549	1
67.0142	1
67.0194	1
77.6733	1
95.7066	2
96.0204	11
114.9155	1
123.0061	4
124.0147	37
128.0507	1
134.0367	1
135.0433	6
137.0234	6
138.0132	1
149.0241	3
155.0414	2
161.0226	2
167.0332	12
176.0303	3
184.043	2
187.3684	2
203.033	16
209.4813	1
212.045	4
213.0535	18
229.0491	5
230.0515	2
241.04	2
257.0449	3
258.015	4
258.0481	21
259.0532	3
286.045	7
287.0495	2
301.0327	9
301.0684	999
