Mass spectrum: Ciprostene (calcium salt); ESI-TOF; MS2; CE: 6.0000000;  [M+H]+
Name: Ciprostene (calcium salt)
Class: NA
Formula: C22H36O4
Exact mass: 364.26136
SMILES: CCCCC[C@H](O)/C=C/[C@H]1[C@H](O)C[C@@]2(C)[C@@H]1C/C(C2)=C/CCCC(O)=O
InChI: InChI=1S/C22H36O4/c1-3-4-5-9-17(23)11-12-18-19-13-16(8-6-7-10-21(25)26)14-22(19,2)15-20(18)24/h8,11-12,17-20,23-24H,3-7,9-10,13-15H2,1-2H3,(H,25,26)/b12-11+,16-8-/t17-,18+,19+,20+,22-/m0/s1
Instrument: waters xevo g2 TOF
Instrument type: ESI-TOF
Ms type: MS2
Ion mode: POSITIVE
Ionization: ESI
Collision energy: 6.0000000
Column name: Acquity CSHC18
Retention time: 4.941 min
Base peak: 365.26936
Precursor m/z: 365.26936
Precursor type: [M+H]+
m/z	relative intensity
131.0848	1
147.1173	1
149.1146	10
151.1488	3
163.113	2
171.1174	9
175.1133	3
181.1206	5
184.1008	7
187.1472	4
191.1471	1
191.6058	2
193.6095	6
201.1648	19
202.1117	5
205.119	2
229.1941	1
231.1391	8
233.1544	2
241.1588	1
245.1528	2
269.2242	2
283.2406	7
285.223	1
287.2033	3
293.2271	12
301.2372	1
303.232	7
304.2387	1
311.2358	82
312.2391	14
327.231	7
328.2356	1
329.2478	999
330.2512	257
331.2574	31
332.2605	2
345.2431	48
346.2448	10
347.258	338
348.261	82
349.2621	9
363.2541	18
364.2559	5
366.2301	7
366.7291	3
