Mass spectrum: NORSPERMIDINE; LC-ESI-QTOF; MS2; CE: 40;  [M+H]+
Name: NORSPERMIDINE
Class: NA
Formula: C6H17N3
Exact mass: 131.14225
SMILES: NCCCNCCCN
InChI: InChI=1S/C6H17N3/c7-3-1-5-9-6-2-4-8/h9H,1-8H2
Instrument: Agilent 6530Â Q-TOF LC/MS
Instrument type: LC-ESI-QTOF
Ms type: MS2
Ion mode: POSITIVE
Ionization: ESI
Collision energy: 40
Column name: NA
Retention time: 0.200 min
Base peak: 132.14912
Precursor m/z: 132.14912
Precursor type: [M+H]+
Precursor intensity: 149.5
m/z	relative intensity
40.0291	17
41.0637	17
42.0904	18
43.0633	18
44.1772	19
44.4903	19
54.0331	20
55.0532	27
56.0635	56
57.0548	58
58.0941	88
58.3416	175
58.4375	260
62.9485	511
68.052	555
70.1063	705
70.3499	722
98.105	999
