Mass spectrum: Tyramine; LC-ESI-ITFT; MS2; CE: 100;  [M+H]+
Name: Tyramine
Class: Benzenoids; Benzene and substituted derivatives; Phenethylamines
Formula: C8H11NO
Exact mass: 137.08406
SMILES: NCCC1=CC=C(O)C=C1
InChI: InChI=1S/C8H11NO/c9-6-5-7-1-3-8(10)4-2-7/h1-4,10H,5-6,9H2
Instrument: Thermo Scientific Q-Exactive Focus
Instrument type: LC-ESI-ITFT
Ms type: MS2
Ion mode: POSITIVE
Ionization: ESI
Collision energy: 100
Column name: Acquity CSHC18
Retention time: NA
Base peak: 138.09134
Precursor m/z: 138.09134
Precursor type: [M+H]+
m/z	relative intensity
50.0157	999
51.0236	215
53.0028	518
61.0079	77
62.0157	72
63.0235	50
65.0028	201
66.0106	30
74.0156	94
80.5305	20
