Mass spectrum: CHOLATE; LC-ESI-QFT; MS2; CE: 30eV;  [M-H]-
Name: CHOLATE
Class: NA
Formula: C24H40O5
Exact mass: 408.28757
SMILES: [H][C@@]1(CC[C@@]2([H])[C@]3([H])[C@H](O)C[C@]4([H])C[C@H](O)CC[C@]4(C)[C@@]3([H])C[C@H](O)[C@]12C)[C@H](C)CCC(O)=O
InChI: InChI=1S/C24H40O5/c1-13(4-7-21(28)29)16-5-6-17-22-18(12-20(27)24(16,17)3)23(2)9-8-15(25)10-14(23)11-19(22)26/h13-20,22,25-27H,4-12H2,1-3H3,(H,28,29)/t13-,14+,15-,16-,17+,18+,19-,20+,22+,23+,24-/m1/s1
Instrument: Q-Exactive Orbitrap, Thermo Scientfic; Ultimate 3000 HPLC, Thermo Scientfic
Instrument type: LC-ESI-QFT
Ms type: MS2
Ion mode: NEGATIVE
Ionization: ESI
Collision energy: 30eV
Column name: Acquity CSHC18
Retention time: 10.211 min
Base peak: 407.2803
Precursor m/z: 407.2803
Precursor type: [M-H]-
Precursor intensity: 170
m/z	relative intensity
51.9709	1
53.6581	1
56.2312	1
56.8603	1
61.6635	1
70.0694	1
70.9363	1
73.9019	1
95.3976	1
96.148	1
100.4068	1
120.874	1
134.629	1
158.8067	1
176.9845	1
180.0215	1
181.9751	1
192.23	1
199.8872	1
213.5708	1
223.4379	1
298.2278	1
306.343	1
310.5356	1
325.2204	21
326.2226	2
327.2691	1
343.2647	14
345.279	5
348.773	1
353.248	1
363.2908	17
364.2925	1
407.2799	999
408.2834	134
