Mass spectrum: Tyramine; ESI-TOF; MS2; CE: 0.6458333;  [M+H]+
Name: Tyramine
Class: NA
Formula: C8H11NO
Exact mass: 137.08406
SMILES: NCCC1=CC=C(O)C=C1
InChI: InChI=1S/C8H11NO/c9-6-5-7-1-3-8(10)4-2-7/h1-4,10H,5-6,9H2
Instrument: waters xevo g2 TOF
Instrument type: ESI-TOF
Ms type: MS2
Ion mode: POSITIVE
Ionization: ESI
Collision energy: 0.6458333
Column name: Acquity CSHC18
Retention time: 0.574 min
Base peak: 138.09206
Precursor m/z: 138.09206
Precursor type: [M+H]+
m/z	relative intensity
65.04	44
77.0398	999
78.0437	95
91.0553	592
92.0586	182
93.071	460
94.0742	180
95.0495	123
97.9697	148
99.9695	29
102.0476	113
103.0552	820
104.0585	279
108.0587	2
119.0504	31
120.0586	13
121.9207	51
133.0655	7
138.0404	22
141.9479	1
150.0924	15
154.0874	1
162.9862	21
164.9989	16
175.9935	2
192.0184	71
194.0735	33
196.0268	1
210.0221	16
212.0179	5
236.0206	3
238.0169	7
239.0644	4
240.0645	1
263.9452	1
270.1493	2
292.9438	2
312.0692	7
321.971	3
328.048	4
329.0955	33
330.0976	5
351.0777	6
383.0158	1
399.0092	4
441.3361	3
