Mass spectrum: Esculetin; LC-ESI-ITFT; MS2; CE: 45eV;  [M+H]+
Name: Esculetin
Class: coumarin
Formula: C9H6O4
Exact mass: 178.0266
SMILES: C1=CC(=O)OC2=CC(=C(C=C21)O)O
InChI: InChI=1S/C9H6O4/c10-6-3-5-1-2-9(12)13-8(5)4-7(6)11/h1-4,10-11H
Instrument: LTQ Orbitrap XL, Thermo Scientfic; Dionex Ultimate 300
Instrument type: LC-ESI-ITFT
Ms type: MS2
Ion mode: POSITIVE
Ionization: ESI
Collision energy: 45eV
Column name: Alltima C18
Retention time: 13.4 min
Base peak: 179.0322
Precursor m/z: 179.0322
Precursor type: [M+H]+
m/z	relative intensity
106.9657	5
116.8348	24
122.848	311
150.8645	999
