Mass spectrum: 4-Hydroxycinnamic acid; LC-ESI-ITFT; MS2; CE: 60;  [M-H]-
Name: 4-Hydroxycinnamic acid
Class: Phenylpropanoids and polyketides; Cinnamic acids and derivatives; Hydroxycinnamic acids and derivatives
Formula: C9H8O3
Exact mass: 164.04734
SMILES: OC(=O)\C=C\C1=CC=C(O)C=C1
InChI: InChI=1S/C9H8O3/c10-8-4-1-7(2-5-8)3-6-9(11)12/h1-6,10H,(H,11,12)/b6-3+
Instrument: Thermo Scientific Q-Exactive Focus
Instrument type: LC-ESI-ITFT
Ms type: MS2
Ion mode: NEGATIVE
Ionization: ESI
Collision energy: 60
Column name: Acquity CSHC18
Retention time: NA
Base peak: 163.04007
Precursor m/z: 163.04007
Precursor type: [M-H]-
m/z	relative intensity
65.0384	573
89.0384	146
91.0541	32
93.0334	999
99.0426	33
108.6827	36
117.0335	177
153.1778	35
162.5662	33
168.2264	39
