Mass spectrum: Deoxyuridine; LC-ESI-QTOF; MS2; CE: 30;  [M-H]-
Name: Deoxyuridine
Class: NA
Formula: C9H12N2O5
Exact mass: 228.07462
SMILES: C1C(C(OC1N2C=CC(=O)NC2=O)CO)O
InChI: InChI=1S/C9H12N2O5/c12-4-6-5(13)3-8(16-6)11-2-1-7(14)10-9(11)15/h1-2,5-6,8,12-13H,3-4H2,(H,10,14,15)
Instrument: impact II
Instrument type: LC-ESI-QTOF
Ms type: MS2
Ion mode: NEGATIVE
Ionization: ESI
Collision energy: 30
Column name: Acquity CSHC18
Retention time: 1.676 min
Base peak: 227.06690
Precursor m/z: 227.06690
Precursor type: [M-H]-
m/z	relative intensity
66.0349	280
94.0303	999
106.9868	107
108.0459	230
136.0404	249
