Mass spectrum: DEOXYGUANOSINE; LC-ESI-QTOF; MS2; CE: 40;  [M-H]-
Name: DEOXYGUANOSINE
Class: NA
Formula: C10H13N5O4
Exact mass: 267.09675
SMILES: NC1=NC2=C(N=CN2[C@H]2C[C@H](O)[C@@H](CO)O2)C(=O)N1
InChI: InChI=1S/C10H13N5O4/c11-10-13-8-7(9(18)14-10)12-3-15(8)6-1-4(17)5(2-16)19-6/h3-6,16-17H,1-2H2,(H3,11,13,14,18)/t4-,5+,6+/m0/s1
Instrument: Agilent 6530Â Q-TOF LC/MS
Instrument type: LC-ESI-QTOF
Ms type: MS2
Ion mode: NEGATIVE
Ionization: ESI
Collision energy: 40
Column name: NA
Retention time: 0.200 min
Base peak: 266.08769
Precursor m/z: 266.08769
Precursor type: [M-H]-
Precursor intensity: 140
m/z	relative intensity
41.0172	118
41.9999	134
59.0105	144
66.0174	158
78.0123	173
80.0334	192
105.0187	219
106.026	230
108.0342	407
133.0324	447
134.0397	668
150.0501	979
176.0534	999
