Mass spectrum: Dodecanoic acid; LC-ESI-QTOF; MS2; CE: 10;  [M-H]-
Name: Dodecanoic acid
Class: NA
Formula: C12H24O2
Exact mass: 200.1776
SMILES: CCCCCCCCCCCC(=O)O
InChI: InChI=1S/C12H24O2/c1-2-3-4-5-6-7-8-9-10-11-12(13)14/h2-11H2,1H3,(H,13,14)
Instrument: impact II
Instrument type: LC-ESI-QTOF
Ms type: MS2
Ion mode: NEGATIVE
Ionization: ESI
Collision energy: 10
Column name: Acquity CSHC18
Retention time: 1.898 min
Base peak: 199.1707
Precursor m/z: 199.1707
Precursor type: [M-H]-
m/z	relative intensity
199.1706	999
200.1739	185
