Mass spectrum: Isoimperatorin; LC-ESI-ITFT; MS2; CE: 45eV;  [M+H]+
Name: Isoimperatorin
Class: coumarin
Formula: C16H14O4
Exact mass: 270.0892
SMILES: CC(=CCOC1=C2C=CC(=O)OC2=CC3=C1C=CO3)C
InChI: InChI=1S/C16H14O4/c1-10(2)5-7-19-16-11-3-4-15(17)20-14(11)9-13-12(16)6-8-18-13/h3-6,8-9H,7H2,1-2H3
Instrument: LTQ Orbitrap XL, Thermo Scientfic; Dionex Ultimate 300
Instrument type: LC-ESI-ITFT
Ms type: MS2
Ion mode: POSITIVE
Ionization: ESI
Collision energy: 45eV
Column name: Alltima C18
Retention time: 24.12 min
Base peak: 271.0962
Precursor m/z: 271.0962
Precursor type: [M+H]+
m/z	relative intensity
202.9716	999
229.0893	1
