Mass spectrum: ADENOSINE; LC-ESI-QTOF; MS2; CE: 20-40eV;  [M+H]+
Name: ADENOSINE
Class: Amino acids and derivatives
Formula: C10H13N5O4
Exact mass: 267.0968
SMILES: C(C1(C(C(C(N2C=NC3=C(N)N=CN=C32)(O1)[H])(O)[H])(O)[H])[H])O
InChI: InChI=1S/C10H13N5O4/c11-8-5-9(13-2-12-8)15(3-14-5)10-7(18)6(17)4(1-16)19-10/h2-4,6-7,10,16-18H,1H2,(H2,11,12,13)
Instrument: Impact II, Bruker; Dionex 3000, Thermo Scientific
Instrument type: LC-ESI-QTOF
Ms type: MS2
Ion mode: POSITIVE
Ionization: ESI
Collision energy: 20-40eV
Column name: Acquity CSHC18
Retention time: 0.881 min
Base peak: 268.1043
Precursor m/z: 268.1043
Precursor type: [M+H]+
Precursor intensity: 76768.88
m/z	relative intensity
95.0598	8
100.0596	13
121.0512	14
136.1309	22
136.4214	141
137.0548	999
