Mass spectrum: Nicotianoside Ia; LC-ESI-QTOF; MS2; CE: 20eV;  [M+NH4]+
Name: Nicotianoside Ia
Class: Diterpene
Formula: C41H66O19
Exact mass: 862.4198
SMILES: O=C(O)CC(=O)OC[C@H]1O[C@@H](OCC(/C)=C\CCC(\C)=C\CCC(\C)=C\CC[C@](C)(O[C@@H]2O[C@H](CO)[C@@H](O[C@@H]3O[C@@H](C)[C@H](O)[C@@H](O)[C@H]3O)[C@H](O)[C@H]2O)C=C)[C@H](O)[C@@H](O)[C@@H]1O
InChI: InChI=1S/C41H66O19/c1-7-41(6,60-40-36(53)33(50)37(25(18-42)57-40)59-39-35(52)31(48)29(46)24(5)56-39)16-10-15-22(3)12-8-11-21(2)13-9-14-23(4)19-55-38-34(51)32(49)30(47)26(58-38)20-54-28(45)17-27(43)44/h7,11,14-15,24-26,29-40,42,46-53H,1,8-10,12-13,16-20H2,2-6H3,(H,43,44)/b21-11+,22-15+,23-14-/t24-,25+,26+,29-,30+,31+,32-,33+,34+,35+,36+,37+,38+,39-,40-,41+/m0/s1
Instrument: Impact II qTOF
Instrument type: LC-ESI-QTOF
Ms type: MS2
Ion mode: POSITIVE
Ionization: ESI
Collision energy: 20eV
Column name: Direct injection MS/MS
Retention time: 0.9 min
Base peak: 880.4570
Precursor m/z: 880.4570
Precursor type: [M+NH4]+
m/z	relative intensity
149.1323	16
177.1641	20
215.1798	36
249.0614	91
271.2423	704
272.2457	126
273.0972	19
289.2524	86
309.118	74
359.0976	85
377.108	47
381.2773	20
395.118	253
396.121	38
399.2883	50
411.1131	49
413.1279	55
417.2995	253
418.3023	66
435.3103	42
519.2946	26
537.3048	68
538.3093	21
557.1699	41
665.3535	34
683.3652	58
684.3683	20
880.4571	999
