Mass spectrum: Alantolactone-Cysteine; LC-ESI-ITFT; MS2; CE: 50eV;  [M+H]+
Name: Alantolactone-Cysteine
Class: Sesquiterpenelactone; Eudesmanolide
Formula: C18H27NO4S
Exact mass: 353.1661
SMILES: O=C(O)[C@@H](N)CSCC1C(=O)O[C@@H]2C[C@@]3(C)CCCC(C)C3=C[C@H]12
InChI: InChI=1S/C18H27NO4S/c1-10-4-3-5-18(2)7-15-11(6-13(10)18)12(17(22)23-15)8-24-9-14(19)16(20)21/h6,10-12,14-15H,3-5,7-9,19H2,1-2H3,(H,20,21)/t10?,11-,12?,14+,15-,18-/m1/s1
Instrument: Q Exactive Plus, ThermoFisher Scientific
Instrument type: LC-ESI-ITFT
Ms type: MS2
Ion mode: POSITIVE
Ionization: ESI
Collision energy: 50eV
Column name: Acquity CSHC18
Retention time: 7.237 min
Base peak: 354.1728
Precursor m/z: 354.1728
Precursor type: [M+H]+
Precursor intensity: 697643800
m/z	relative intensity
88.0309	167
121.0833	169
133.0823	247
137.0502	293
145.0822	450
163.0662	652
173.1144	689
177.0818	780
189.1455	999
