Mass spectrum: L-Homoserine; LC-ESI-ITFT; MS2; CE: 40;  [M+H]+
Name: L-Homoserine
Class: Organic acids and derivatives; Carboxylic acids and derivatives; Amino acids, peptides, and analogues
Formula: C4H9NO3
Exact mass: 119.05824
SMILES: N[C@@H](CCO)C(O)=O
InChI: InChI=1S/C4H9NO3/c5-3(1-2-6)4(7)8/h3,6H,1-2,5H2,(H,7,8)/t3-/m0/s1
Instrument: Thermo Scientific Q-Exactive Focus
Instrument type: LC-ESI-ITFT
Ms type: MS2
Ion mode: POSITIVE
Ionization: ESI
Collision energy: 40
Column name: Acquity CSHC18
Retention time: 1.464 min
Base peak: 120.06552
Precursor m/z: 120.06552
Precursor type: [M+H]+
m/z	relative intensity
52.9437	13
55.0184	15
56.05	999
60.6427	15
64.9018	13
75.048	12
98.403	12
99.8999	15
115.4878	13
121.9039	14
