Mass spectrum: HYDROXYPHENYLLACTATE; LC-ESI-QTOF; MS2; CE: 20;  [M-H]-
Name: HYDROXYPHENYLLACTATE
Class: NA
Formula: C9H10O4
Exact mass: 182.05791
SMILES: OC(CC1=CC=C(O)C=C1)C(O)=O
InChI: InChI=1S/C9H10O4/c10-7-3-1-6(2-4-7)5-8(11)9(12)13/h1-4,8,10-11H,5H2,(H,12,13)
Instrument: Agilent 6530Â Q-TOF LC/MS
Instrument type: LC-ESI-QTOF
Ms type: MS2
Ion mode: NEGATIVE
Ionization: ESI
Collision energy: 20
Column name: NA
Retention time: 0.200 min
Base peak: 181.04985
Precursor m/z: 181.04985
Precursor type: [M-H]-
Precursor intensity: 158
m/z	relative intensity
45.001	126
73.0054	136
74.0009	156
93.038	189
106.0381	198
107.0532	235
117.0359	265
119.0639	411
133.026	530
134.0598	634
135.0743	830
163.0521	999
