Mass spectrum: succinic acid; LC-ESI-QTOF; MS2; CE: -10, -35, -60V;  [M-H]-
Name: succinic acid
Class: NA
Formula: C4H6O4
Exact mass: 118.0266
SMILES: C(CC(=O)O)C(=O)O
InChI: InChI=1S/C4H6O4/c5-3(6)1-2-4(7)8/h1-2H2,(H,5,6)(H,7,8)
Instrument: TripleToF 5600; Sciex
Instrument type: LC-ESI-QTOF
Ms type: MS2
Ion mode: NEGATIVE
Ionization: ESI
Collision energy: -10, -35, -60V
Column name: Acquity CSHC18
Retention time: 9.653 min
Base peak: 117.0213
Precursor m/z: 117.0213
Precursor type: [M-H]-
Precursor intensity: 280147.4
m/z	relative intensity
73.0308	999
94.0274	6
99.0103	329
117.0191	577
