Mass spectrum: Citraconic acid; LC-ESI-ITFT; MS2; CE: 100;  [M-H]-
Name: Citraconic acid
Class: Lipids and lipid-like molecules; Fatty Acyls; Fatty acids and conjugates
Formula: C5H6O4
Exact mass: 130.02661
SMILES: C\C(=C\C(O)=O)C(O)=O
InChI: InChI=1S/C5H6O4/c1-3(5(8)9)2-4(6)7/h2H,1H3,(H,6,7)(H,8,9)/b3-2-
Instrument: Thermo Scientific Q-Exactive Focus
Instrument type: LC-ESI-ITFT
Ms type: MS2
Ion mode: NEGATIVE
Ionization: ESI
Collision energy: 100
Column name: Acquity CSHC18
Retention time: 2.318 min
Base peak: 129.01933
Precursor m/z: 129.01933
Precursor type: [M-H]-
m/z	relative intensity
61.2476	909
66.9408	848
68.5335	876
76.6174	903
78.741	826
88.7929	828
88.8053	857
90.0274	999
123.9868	830
145.0734	838
