Mass spectrum: L-Gulonolactone; LC-ESI-ITFT; MS2; CE: 100;  [M-H]-
Name: L-Gulonolactone
Class: Organoheterocyclic compounds; Lactones; Gamma butyrolactones
Formula: C6H10O6
Exact mass: 178.04774
SMILES: [H][C@@]1(OC(=O)[C@@H](O)[C@H]1O)[C@@H](O)CO
InChI: InChI=1S/C6H10O6/c7-1-2(8)5-3(9)4(10)6(11)12-5/h2-5,7-10H,1H2/t2-,3+,4-,5+/m0/s1
Instrument: Thermo Scientific Q-Exactive Focus
Instrument type: LC-ESI-ITFT
Ms type: MS2
Ion mode: NEGATIVE
Ionization: ESI
Collision energy: 100
Column name: Acquity CSHC18
Retention time: 2.317 min
Base peak: 177.04047
Precursor m/z: 177.04047
Precursor type: [M-H]-
m/z	relative intensity
75.4052	896
82.1214	857
86.3458	900
92.5138	964
92.7446	999
101.8067	863
121.9743	886
134.8557	945
165.4625	991
184.7216	945
