Mass spectrum: N-ALPHA-ACETYLLYSINE; LC-ESI-QTOF; MS2; CE: 40;  [M-H]-
Name: N-ALPHA-ACETYLLYSINE
Class: NA
Formula: C8H16N2O3
Exact mass: 188.11609
SMILES: CC(=O)NC(CCCCN)C(O)=O
InChI: InChI=1S/C8H16N2O3/c1-6(11)10-7(8(12)13)4-2-3-5-9/h7H,2-5,9H2,1H3,(H,10,11)(H,12,13)
Instrument: Agilent 6530Â Q-TOF LC/MS
Instrument type: LC-ESI-QTOF
Ms type: MS2
Ion mode: NEGATIVE
Ionization: ESI
Collision energy: 40
Column name: NA
Retention time: 0.200 min
Base peak: 187.10962
Precursor m/z: 187.10962
Precursor type: [M-H]-
Precursor intensity: 194
m/z	relative intensity
41.0071	177
42.0083	204
44.9997	298
52.0249	336
97.0763	354
145.0903	999
