Mass spectrum: OROTATE; LC-ESI-QTOF; MS2; CE: 20;  [M-H]-
Name: OROTATE
Class: NA
Formula: C5H4N2O4
Exact mass: 156.01711
SMILES: OC(=O)C1=CC(=O)NC(=O)N1
InChI: InChI=1S/C5H4N2O4/c8-3-1-2(4(9)10)6-5(11)7-3/h1H,(H,9,10)(H2,6,7,8,11)
Instrument: Agilent 6530Â Q-TOF LC/MS
Instrument type: LC-ESI-QTOF
Ms type: MS2
Ion mode: NEGATIVE
Ionization: ESI
Collision energy: 20
Column name: NA
Retention time: 0.200 min
Base peak: 155.01023
Precursor m/z: 155.01023
Precursor type: [M-H]-
Precursor intensity: 162
m/z	relative intensity
40.0238	114
41.0075	148
42.0125	261
67.0271	645
111.0312	999
