Mass spectrum: Maltotetraose; ESI-TOF; MS2; CE: 6.0000000;  [M+H]+
Name: Maltotetraose
Class: NA
Formula: C24H42O21
Exact mass: 666.22186
SMILES: OCC1OC(OC2C(CO)OC(OC3C(CO)OC(OC4C(CO)OC(O)C(O)C4O)C(O)C3O)C(O)C2O)C(O)C(O)C1O
InChI: InChI=1S/C24H42O21/c25-1-5-9(29)10(30)15(35)22(40-5)44-19-7(3-27)42-24(17(37)12(19)32)45-20-8(4-28)41-23(16(36)13(20)33)43-18-6(2-26)39-21(38)14(34)11(18)31/h5-38H,1-4H2
Instrument: waters xevo g2 TOF
Instrument type: ESI-TOF
Ms type: MS2
Ion mode: POSITIVE
Ionization: ESI
Collision energy: 6.0000000
Column name: Acquity CSHC18
Retention time: 0.560 min
Base peak: 667.22986
Precursor m/z: 667.22986
Precursor type: [M+H]+
m/z	relative intensity
85.0292	52
96.9615	34
96.9616	32
127.039	42
130.0082	42
135.9922	26
135.9929	22
135.9931	15
138.9903	22
138.991	22
139.9757	5
141.9591	273
145.0502	274
163.0606	154
164.0632	8
178.1227	9
289.0927	51
325.1134	999
326.1167	129
327.1198	13
487.1665	134
488.1693	20
541.0821	3
649.2185	42
650.2213	12
667.2296	30
686.2056	11
689.2103	60
690.2159	16
720.1386	210
721.1453	120
