Mass spectrum: INDOLEACETALDEHYDE; LC-ESI-QFT; MS2; CE: 30eV;  [M+H]+
Name: INDOLEACETALDEHYDE
Class: NA
Formula: C10H9NO
Exact mass: 159.06841
SMILES: O=CCC1=CNC2=CC=CC=C12
InChI: InChI=1S/C10H9NO/c12-6-5-8-7-11-10-4-2-1-3-9(8)10/h1-4,6-7,11H,5H2
Instrument: Q-Exactive Orbitrap, Thermo Scientfic; Ultimate 3000 HPLC, Thermo Scientfic
Instrument type: LC-ESI-QFT
Ms type: MS2
Ion mode: POSITIVE
Ionization: ESI
Collision energy: 30eV
Column name: Acquity CSHC18
Retention time: 1.935 min
Base peak: 160.0757
Precursor m/z: 160.0757
Precursor type: [M+H]+
Precursor intensity: 160
m/z	relative intensity
50.5137	1
52.38	1
55.9351	27
56.3005	1
56.9355	2
56.9429	41
57.0705	1
58.9878	1
60.0362	1
70.0218	1
71.6814	1
72.9376	57
73.6087	1
73.9454	1
74.4964	1
74.9515	1
74.9532	10
81.5182	1
85.8453	1
90.9481	67
91.0546	2
91.9559	1
93.2502	1
95.3593	1
96.961	2
97.9691	74
103.1311	1
107.9506	2
108.9585	14
113.9639	999
114.0914	1
114.9486	3
114.9608	3
114.9637	13
114.9674	13
114.9714	40
115.9687	2
115.9719	5
115.9752	11
115.9796	15
117.0573	19
118.0653	775
118.9427	20
119.0686	24
122.2544	1
125.961	3
128.951	6
130.0651	40
131.0685	11
131.073	27
131.9742	490
132.0808	222
132.9586	11
132.9742	2
132.9781	5
133.0842	12
135.9452	18
136.9531	20
137.969	1
141.9585	105
146.9608	2
149.9846	2
153.9557	12
154.9565	2
154.9903	8
159.1573	14
159.9623	3
159.9691	140
160.0756	283
160.1697	13
160.9715	2
161.0787	15
161.0956	3
