Mass spectrum: Grandiflorenic acid; LC-ESI-QTOF; MS2; CE: 20-40eV;  [M+H]+
Name: Grandiflorenic acid
Class: Terpenes
Formula: C20H28O2
Exact mass: 300.2089
SMILES: C=C1CC23CCC4(C(C)(CCCC4(C)C(=O)O)C3=CCC1(C2)[H])[H]
InChI: InChI=1S/C20H28O2/c1-13-11-20-10-7-15-18(2,16(20)6-5-14(13)12-20)8-4-9-19(15,3)17(21)22/h6,14-15H,1,4-5,7-12H2,2-3H3,(H,21,22)
Instrument: Impact II, Bruker; Dionex 3000, Thermo Scientific
Instrument type: LC-ESI-QTOF
Ms type: MS2
Ion mode: POSITIVE
Ionization: ESI
Collision energy: 20-40eV
Column name: Acquity CSHC18
Retention time: 17.686 min
Base peak: 301.2163
Precursor m/z: 301.2163
Precursor type: [M+H]+
Precursor intensity: 2630.75
m/z	relative intensity
95.0664	163
96.069	171
105.0558	178
109.083	198
110.0847	213
111.0996	214
121.0848	348
131.0768	367
133.0919	437
135.099	449
163.1295	664
169.0837	999
