Mass spectrum: D-RIBOSE 5-PHOSPHATE; LC-ESI-QFT; MS2; CE: 30eV;  [M-H]-
Name: D-RIBOSE 5-PHOSPHATE
Class: NA
Formula: C5H11O8P
Exact mass: 230.01915
SMILES: OC1O[C@H](COP(O)(O)=O)[C@@H](O)[C@H]1O
InChI: InChI=1S/C5H11O8P/c6-3-2(1-12-14(9,10)11)13-5(8)4(3)7/h2-8H,1H2,(H2,9,10,11)/t2-,3-,4-,5?/m1/s1
Instrument: Q-Exactive Orbitrap, Thermo Scientfic; Ultimate 3000 HPLC, Thermo Scientfic
Instrument type: LC-ESI-QFT
Ms type: MS2
Ion mode: NEGATIVE
Ionization: ESI
Collision energy: 30eV
Column name: Acquity CSHC18
Retention time: 0.599 min
Base peak: 229.0119
Precursor m/z: 229.0119
Precursor type: [M-H]-
Precursor intensity: 138
m/z	relative intensity
55.2789	2
58.3462	2
60.0494	2
60.0787	2
66.9831	2
71.0122	12
78.9575	418
86.1182	3
88.2842	2
95.8385	3
96.968	999
104.5377	3
106.737	2
114.2189	2
120.1288	2
127.9404	3
134.63	2
138.9787	169
155.6499	2
168.6808	3
168.9893	4
171.0052	52
180.0645	3
181.8965	4
182.2394	3
182.9545	3
184.8755	4
185.8832	50
185.9258	4
192.9902	7
202.8863	5
229.0111	23
