Mass spectrum: AMP; LC-ESI-QTOF; MS2; CE: 30;  [M+H]+
Name: AMP
Class: NA
Formula: C10H14N5O7P
Exact mass: 347.06308
SMILES: C1=NC(=C2C(=N1)N(C=N2)C3C(C(C(O3)COP(=O)(O)O)O)O)N
InChI: InChI=1S/C10H14N5O7P/c11-8-5-9(13-2-12-8)15(3-14-5)10-7(17)6(16)4(22-10)1-21-23(18,19)20/h2-4,6-7,10,16-17H,1H2,(H2,11,12,13)(H2,18,19,20)
Instrument: impact II
Instrument type: LC-ESI-QTOF
Ms type: MS2
Ion mode: POSITIVE
Ionization: ESI
Collision energy: 30
Column name: Acquity CSHC18
Retention time: 1.788 min
Base peak: 348.07060
Precursor m/z: 348.07060
Precursor type: [M+H]+
m/z	relative intensity
69.0342	3
92.0249	1
97.0287	85
97.0403	2
98.032	5
98.9846	3
109.0513	1
119.0353	18
136.062	999
136.0765	88
136.1039	1
136.1148	11
136.1449	16
136.1555	23
136.1726	12
136.2204	10
136.2647	2
136.2738	1
136.4297	1
137.0647	69
137.0783	1
178.0725	3
214.0727	2
232.0832	2
250.094	7
251.0959	1
346.2688	2
348.072	2
