Mass spectrum: 6-keto Prostaglandin E1; ESI-TOF; MS2; CE: 6.0000000;  [M+H]+
Name: 6-keto Prostaglandin E1
Class: NA
Formula: C20H32O6
Exact mass: 368.21989
SMILES: CCCCC[C@H](O)\C=C\[C@H]1[C@H](O)CC(=O)[C@@H]1CC(=O)CCCCC(O)=O
InChI: InChI=1S/C20H32O6/c1-2-3-4-7-14(21)10-11-16-17(19(24)13-18(16)23)12-15(22)8-5-6-9-20(25)26/h10-11,14,16-18,21,23H,2-9,12-13H2,1H3,(H,25,26)/b11-10+/t14-,16+,17+,18+/m0/s1
Instrument: waters xevo g2 TOF
Instrument type: ESI-TOF
Ms type: MS2
Ion mode: POSITIVE
Ionization: ESI
Collision energy: 6.0000000
Column name: Acquity CSHC18
Retention time: 2.994 min
Base peak: 369.22789
Precursor m/z: 369.22789
Precursor type: [M+H]+
m/z	relative intensity
167.0531	4
183.0333	5
186.0803	24
195.0862	30
201.0883	2
223.097	10
261.1869	4
267.0546	3
269.1904	260
270.1938	37
271.2015	12
287.2004	41
288.2028	6
289.1811	10
297.1849	472
298.1889	93
315.1962	512
316.1978	109
317.2015	10
333.205	999
334.2055	237
335.2123	25
351.2171	180
352.221	32
361.1838	14
365.224	3
370.191	82
