Mass spectrum: Tomentosin, 4-hydroxy-11,13-dihydro; LC-ESI-ITFT; MS2; CE: 50eV;  [M+H]+
Name: Tomentosin, 4-hydroxy-11,13-dihydro
Class: Sesquiterpenelactone; Xanthanolide
Formula: C15H24O3
Exact mass: 252.1725
SMILES: CC(O)CCC1=CC[C@@H]2C(C)C(=O)O[C@@H]2C[C@@H]1C
InChI: InChI=1S/C15H24O3/c1-9-8-14-13(11(3)15(17)18-14)7-6-12(9)5-4-10(2)16/h6,9-11,13-14,16H,4-5,7-8H2,1-3H3/t9-,10?,11?,13+,14+/m0/s1
Instrument: Q Exactive Plus, ThermoFisher Scientific
Instrument type: LC-ESI-ITFT
Ms type: MS2
Ion mode: POSITIVE
Ionization: ESI
Collision energy: 50eV
Column name: Acquity CSHC18
Retention time: 6.622 min
Base peak: 253.1800
Precursor m/z: 253.1800
Precursor type: [M+H]+
Precursor intensity: 2065665000
m/z	relative intensity
57.476	27
70.8047	33
81.0706	46
85.0652	131
93.0705	42
95.086	45
99.0804	214
105.0701	49
107.0865	35
119.0858	42
123.0806	234
139.0759	39
149.1323	41
153.0906	33
161.1318	999
177.6757	31
179.1426	72
181.1213	150
189.1636	359
207.1747	217
217.1605	302
235.1686	759
253.1782	692
