Mass spectrum: L-Histidine; LC-ESI-ITFT; MS2; CE: 20;  [M+H]+
Name: L-Histidine
Class: Organic acids and derivatives; Carboxylic acids and derivatives; Amino acids, peptides, and analogues
Formula: C6H9N3O2
Exact mass: 155.06948
SMILES: N[C@@H](CC1=CN=CN1)C(O)=O
InChI: InChI=1S/C6H9N3O2/c7-5(6(10)11)1-4-2-8-3-9-4/h2-3,5H,1,7H2,(H,8,9)(H,10,11)/t5-/m0/s1
Instrument: Thermo Scientific Q-Exactive Focus
Instrument type: LC-ESI-ITFT
Ms type: MS2
Ion mode: POSITIVE
Ionization: ESI
Collision energy: 20
Column name: Acquity CSHC18
Retention time: 0.630 min
Base peak: 156.07675
Precursor m/z: 156.07675
Precursor type: [M+H]+
m/z	relative intensity
56.0501	28
68.05	20
81.0452	28
82.053	82
83.0608	333
93.0451	216
95.0607	91
110.0716	999
111.0555	8
156.077	2
