Mass spectrum: Orientin; LC-ESI-ITFT; MS2; CE: 45eV;  [M+H]+
Name: Orientin
Class: Flavonoid
Formula: C21H20O11
Exact mass: 448.1006
SMILES: C1=CC(=C(C=C1C2=CC(=O)C3=C(O2)C(=C(C=C3O)O)C4C(C(C(C(O4)CO)O)O)O)O)O
InChI: InChI=1S/C21H20O11/c22-6-14-17(28)18(29)19(30)21(32-14)16-11(26)4-10(25)15-12(27)5-13(31-20(15)16)7-1-2-8(23)9(24)3-7/h1-5,14,17-19,21-26,28-30H,6H2
Instrument: LTQ Orbitrap XL, Thermo Scientfic; Dionex Ultimate 300
Instrument type: LC-ESI-ITFT
Ms type: MS2
Ion mode: POSITIVE
Ionization: ESI
Collision energy: 45eV
Column name: Alltima C18
Retention time: 10.07 min
Base peak: 449.1086
Precursor m/z: 449.1086
Precursor type: [M+H]+
m/z	relative intensity
287.1641	3
327.2093	1
371.2311	1
431.1657	999
