Mass spectrum: Ginsenoside Rb1; LC-ESI-QFT; MS2; CE: 15,30,45 (NCE);  [M+Na]+
Name: Ginsenoside Rb1
Class: NA
Formula: C54H92O23
Exact mass: 1108.6029
SMILES: CC(C)=CCCC(C)(OC1OC(COC2OC(CO)C(O)C(O)C2O)C(O)C(O)C1O)C1CCC2(C)C1C(O)CC1C3(C)CCC(OC4OC(CO)C(O)C(O)C4OC4OC(CO)C(O)C(O)C4O)C(C)(C)C3CCC21C
InChI: InChI=1S/C54H92O23/c1-23(2)10-9-14-54(8,77-48-44(69)40(65)37(62)29(74-48)22-70-46-42(67)38(63)34(59)26(19-55)71-46)24-11-16-53(7)33(24)25(58)18-31-51(5)15-13-32(50(3,4)30(51)12-17-52(31,53)6)75-49-45(41(66)36(61)28(21-57)73-49)76-47-43(68)39(64)35(60)27(20-56)72-47/h10,24-49,55-69H,9,11-22H2,1-8H3
Instrument: QE Focus, Thermo Scientfic; UPLC I-Class, Waters
Instrument type: LC-ESI-QFT
Ms type: MS2
Ion mode: POSITIVE
Ionization: ESI
Collision energy: 15,30,45 (NCE)
Column name: Acquity CSHC18
Retention time: 2.690 min
Base peak: 1131.5920
Precursor m/z: 1131.5920
Precursor type: [M+Na]+
Precursor intensity: 11441010
m/z	relative intensity
92.0088	1
95.7982	1
96.6949	1
109.4864	1
116.8567	1
145.0494	1
153.6267	1
178.0525	2
184.4609	1
185.0412	2
203.0516	6
217.3976	1
245.0625	2
275.0724	5
305.0843	34
320.9559	1
347.0938	2
365.1055	999
366.1118	2
444.9595	1
463.0444	1
489.1694	2
789.4758	223
790.4691	2
811.4506	2
997.1889	1
1131.5919	726
