Mass spectrum: CAFFEATE; LC-ESI-QTOF; MS2; CE: 40;  [M-H]-
Name: CAFFEATE
Class: NA
Formula: C9H8O4
Exact mass: 180.04226
SMILES: OC(=O)\C=C/C1=CC=C(O)C(O)=C1
InChI: InChI=1S/C9H8O4/c10-7-3-1-6(5-8(7)11)2-4-9(12)13/h1-5,10-11H,(H,12,13)/b4-2-
Instrument: Agilent 6530Â Q-TOF LC/MS
Instrument type: LC-ESI-QTOF
Ms type: MS2
Ion mode: NEGATIVE
Ionization: ESI
Collision energy: 40
Column name: NA
Retention time: 0.200 min
Base peak: 179.03612
Precursor m/z: 179.03612
Precursor type: [M-H]-
Precursor intensity: 140
m/z	relative intensity
41.0066	123
49.0123	141
51.0258	142
63.0235	152
65.0217	204
77.0376	207
79.0563	208
89.054	210
91.0265	210
106.046	211
107.0493	214
108.0275	242
109.0281	250
117.0348	288
132.0181	377
133.0348	720
134.0586	955
135.0598	999
