Mass spectrum: 3-METHOXYTYRAMINE; LC-ESI-QTOF; MS2; CE: 10;  [M+H]+
Name: 3-METHOXYTYRAMINE
Class: NA
Formula: C9H13NO2
Exact mass: 167.09463
SMILES: COC1=C(O)C=CC(CCN)=C1
InChI: InChI=1S/C9H13NO2/c1-12-9-6-7(4-5-10)2-3-8(9)11/h2-3,6,11H,4-5,10H2,1H3
Instrument: Agilent 6530Â Q-TOF LC/MS
Instrument type: LC-ESI-QTOF
Ms type: MS2
Ion mode: POSITIVE
Ionization: ESI
Collision energy: 10
Column name: NA
Retention time: 0.200 min
Base peak: 168.09798
Precursor m/z: 168.09798
Precursor type: [M+H]+
Precursor intensity: 128.5
m/z	relative intensity
41.0409	15
45.0365	15
51.0354	15
53.0362	16
55.0288	16
57.0321	16
62.0141	16
62.1745	16
63.0246	16
65.0848	17
65.2784	17
65.4429	17
67.0568	17
73.0025	17
77.063	17
78.0471	17
79.0758	18
80.0778	18
89.0363	18
90.0504	19
90.4724	19
90.8244	19
91.7228	19
92.6633	19
92.7488	19
92.8675	19
93.0664	19
93.7796	19
94.0448	19
95.0814	20
95.2156	20
95.3542	21
95.5561	22
102.0388	24
103.0689	26
105.0831	29
106.0665	30
107.0723	31
108.0888	32
118.0657	34
119.6475	34
120.5069	37
120.8531	39
121.0864	54
123.0955	57
133.0741	71
135.0416	73
136.1941	84
136.5509	86
136.7787	99
137.057	126
137.6145	154
149.0501	157
149.9464	193
150.0699	222
150.217	266
150.5407	447
151.912	488
153.3603	554
153.7876	799
154.0842	801
168.1314	999
