Mass spectrum: L-Methionine; LC-ESI-ITFT; MS2; CE: 10;  [M+H]+
Name: L-Methionine
Class: Organic acids and derivatives; Carboxylic acids and derivatives; Amino acids, peptides, and analogues
Formula: C5H11NO2S
Exact mass: 149.05105
SMILES: CSCC[C@H](N)C(O)=O
InChI: InChI=1S/C5H11NO2S/c1-9-3-2-4(6)5(7)8/h4H,2-3,6H2,1H3,(H,7,8)/t4-/m0/s1
Instrument: Thermo Scientific Q-Exactive Focus
Instrument type: LC-ESI-ITFT
Ms type: MS2
Ion mode: POSITIVE
Ionization: ESI
Collision energy: 10
Column name: Acquity CSHC18
Retention time: 0.349 min
Base peak: 150.05833
Precursor m/z: 150.05833
Precursor type: [M+H]+
m/z	relative intensity
56.05	585
61.0112	226
74.0241	27
74.0604	36
87.0266	53
102.0552	252
104.0531	999
133.0318	672
150.0583	159
150.1277	56
