Mass spectrum: ATP; LC-ESI-QTOF; MS2; CE: 60;  [M+H]+
Name: ATP
Class: NA
Formula: C10H16N5O13P3
Exact mass: 506.99575
SMILES: C1=NC(=C2C(=N1)N(C=N2)C3C(C(C(O3)COP(=O)(O)OP(=O)(O)OP(=O)(O)O)O)O)N
InChI: InChI=1S/C10H16N5O13P3/c11-8-5-9(13-2-12-8)15(3-14-5)10-7(17)6(16)4(26-10)1-25-30(21,22)28-31(23,24)27-29(18,19)20/h2-4,6-7,10,16-17H,1H2,(H,21,22)(H,23,24)(H2,11,12,13)(H2,18,19,20)
Instrument: impact II
Instrument type: LC-ESI-QTOF
Ms type: MS2
Ion mode: POSITIVE
Ionization: ESI
Collision energy: 60
Column name: Acquity CSHC18
Retention time: 1.791 min
Base peak: 508.00290
Precursor m/z: 508.00290
Precursor type: [M+H]+
m/z	relative intensity
69.0338	7
92.0242	3
94.0402	3
97.0287	60
98.0323	3
98.9844	7
109.0508	3
119.035	54
120.0373	3
121.0507	1
135.0537	2
136.0617	999
136.0761	85
136.0902	2
136.1146	5
136.1452	16
136.1552	25
136.1721	4
136.2201	4
136.2645	1
136.2737	1
136.4296	1
137.0477	5
137.0645	74
148.0616	13
149.0685	4
150.0761	1
152.9938	1
159.0667	4
160.9393	2
162.0772	2
166.0718	1
174.077	1
176.0562	3
176.0925	3
176.9949	4
178.0724	33
178.9502	6
179.0747	2
186.0774	8
187.0605	3
190.0727	2
198.0166	3
202.0722	2
204.0879	8
205.0904	1
214.0723	13
215.0755	2
216.0281	20
232.0824	20
233.0869	3
250.0932	4
312.0486	4
330.0612	2
