Mass spectrum: γ-Isoalantolactone; LC-ESI-ITFT; MS2; CE: 50eV;  [M+H]+
Name: γ-Isoalantolactone
Class: Sesquiterpenelactone; Eudesmanolide
Formula: C15H20O2
Exact mass: 232.1463
SMILES: CC1=C2CC3C(CC2(CCC1)C)OC(=O)C3=C
InChI: InChI=1S/C15H20O2/c1-9-5-4-6-15(3)8-13-11(7-12(9)15)10(2)14(16)17-13/h11,13H,2,4-8H2,1,3H3
Instrument: Q Exactive Plus, ThermoFisher Scientific
Instrument type: LC-ESI-ITFT
Ms type: MS2
Ion mode: POSITIVE
Ionization: ESI
Collision energy: 50eV
Column name: Acquity CSHC18
Retention time: 13.184 min
Base peak: 233.1528
Precursor m/z: 233.1528
Precursor type: [M+H]+
Precursor intensity: 259291500
m/z	relative intensity
55.0549	43
58.7178	22
67.055	42
69.034	25
69.0705	62
79.0549	100
80.3643	25
81.0705	274
83.0862	60
86.4055	27
91.0544	133
93.07	200
95.0858	322
105.0699	427
107.0862	150
109.1019	177
117.0695	34
119.0858	170
121.1017	131
125.0602	47
131.086	333
133.0641	138
133.1005	167
137.0593	48
143.0861	27
145.1004	332
147.1172	326
151.0747	310
151.6964	25
155.0854	45
157.1016	51
159.0792	111
159.1173	376
161.1315	400
163.0751	50
169.1014	52
173.0961	146
177.0904	349
187.1105	44
187.1468	999
197.1334	218
205.1595	30
215.1418	644
233.1516	829
