Mass spectrum: ferulic acid; LC-ESI-QTOF; MS2; CE: -10, -35, -60V;  [M-H]-
Name: ferulic acid
Class: NA
Formula: C10H10O4
Exact mass: 194.0579
SMILES: COC1=C(C=CC(=C1)C=CC(=O)O)O
InChI: InChI=1S/C10H10O4/c1-14-9-6-7(2-4-8(9)11)3-5-10(12)13/h2-6,11H,1H3,(H,12,13)
Instrument: TripleToF 5600; Sciex
Instrument type: LC-ESI-QTOF
Ms type: MS2
Ion mode: NEGATIVE
Ionization: ESI
Collision energy: -10, -35, -60V
Column name: Acquity CSHC18
Retention time: 9.307 min
Base peak: 193.0482
Precursor m/z: 193.0482
Precursor type: [M-H]-
Precursor intensity: 80310.94
m/z	relative intensity
117.024	14
133.032	59
134.0368	279
137.0244	6
149.0593	131
178.0283	361
179.0279	39
191.0917	6
193.0382	992
193.0519	999
