Mass spectrum: ADENOSINE DIPHOSPHATE RIBOSE; LC-ESI-QFT; MS2; CE: 30eV;  [M-H]-
Name: ADENOSINE DIPHOSPHATE RIBOSE
Class: NA
Formula: C15H23N5O14P2
Exact mass: 559.07167
SMILES: NC1=C2N=CN(C3OC(COP(O)(=O)OP(O)(=O)OCC4OC(O)C(O)C4O)C(O)C3O)C2=NC=N1
InChI: InChI=1S/C15H23N5O14P2/c16-12-7-13(18-3-17-12)20(4-19-7)14-10(23)8(21)5(32-14)1-30-35(26,27)34-36(28,29)31-2-6-9(22)11(24)15(25)33-6/h3-6,8-11,14-15,21-25H,1-2H2,(H,26,27)(H,28,29)(H2,16,17,18)
Instrument: Q-Exactive Orbitrap, Thermo Scientfic; Ultimate 3000 HPLC, Thermo Scientfic
Instrument type: LC-ESI-QFT
Ms type: MS2
Ion mode: NEGATIVE
Ionization: ESI
Collision energy: 30eV
Column name: Acquity CSHC18
Retention time: 0.587 min
Base peak: 558.0644
Precursor m/z: 558.0644
Precursor type: [M-H]-
Precursor intensity: 125
m/z	relative intensity
50.001	15
52.8264	13
52.8559	14
52.8754	12
53.3971	13
57.2742	14
78.9575	707
80.8446	18
96.968	444
124.2386	16
134.0456	30
150.9787	35
156.4256	18
158.9242	92
163.2733	16
163.5754	15
175.6626	17
192.5012	16
192.9901	70
211.0009	95
230.9461	70
272.9575	108
290.9684	36
328.0453	37
346.0558	999
351.7494	18
390.2068	20
408.011	130
