Mass spectrum: Sedoheptulose; ESI-TOF; MS2; CE: 0.6458333;  [M+H]+
Name: Sedoheptulose
Class: NA
Formula: C7H14O7
Exact mass: 210.07395
SMILES: OCC(O)C(O)C(O)C(O)C(=O)CO
InChI: InChI=1S/C7H14O7/c8-1-3(10)5(12)7(14)6(13)4(11)2-9/h3,5-10,12-14H,1-2H2
Instrument: waters xevo g2 TOF
Instrument type: ESI-TOF
Ms type: MS2
Ion mode: POSITIVE
Ionization: ESI
Collision energy: 0.6458333
Column name: Acquity CSHC18
Retention time: 0.570 min
Base peak: 211.08195
Precursor m/z: 211.08195
Precursor type: [M+H]+
m/z	relative intensity
85.0289	476
97.029	352
99.0448	9
111.0446	9
113.9399	139
115.039	9
127.0388	77
129.0552	9
138.99	9
139.0395	9
145.0489	9
157.0496	182
158.0032	9
158.0033	9
170.9742	142
175.0603	9
176.0639	9
193.071	9
197.9603	145
198.0775	9
198.9687	281
199.0792	181
210.0976	9
211.1013	9
212.0449	207
215.0531	999
216.0561	9
227.9724	247
245.984	278
246.9903	454
291.9888	9
292.9962	181
306.0042	886
307.0081	122
308.0758	9
316.0635	9
385.1355	9
407.1164	9
409.0922	9
436.0521	9
438.0451	498
439.0518	139
630.1107	9
631.1097	9
