Mass spectrum: 4-Hydroxycoumarin; LC-ESI-QTOF; MS2; CE: 15.00;  [M+H]+
Name: 4-Hydroxycoumarin
Class: NA
Formula: C9H6O3
Exact mass: 162.0317
SMILES: C1=CC=C2C(=C1)C(=CC(=O)O2)O
InChI: InChI=1S/C9H6O3/c10-7-5-9(11)12-8-4-2-1-3-6(7)8/h1-5,10H
Instrument: Bruker MicrOTOF-Q
Instrument type: LC-ESI-QTOF
Ms type: MS2
Ion mode: POSITIVE
Ionization: ESI
Collision energy: 15.00
Column name: Acquity CSHC18
Retention time: NA
Base peak: 163.0390
Precursor m/z: 163.0390
Precursor type: [M+H]+
m/z	relative intensity
91.0481	29
95.0429	30
119.0455	37
121.0247	57
122.0273	91
163.0376	765
164.0407	999
