Mass spectrum: L-Alloisoleucine; ESI-TOF; MS2; CE: 0.6458333;  [M+H]+
Name: L-Alloisoleucine
Class: NA
Formula: C6H13NO2
Exact mass: 131.09463
SMILES: CCC(C)C(N)C(O)=O
InChI: InChI=1S/C6H13NO2/c1-3-4(2)5(7)6(8)9/h4-5H,3,7H2,1-2H3,(H,8,9)
Instrument: waters xevo g2 TOF
Instrument type: ESI-TOF
Ms type: MS2
Ion mode: POSITIVE
Ionization: ESI
Collision energy: 0.6458333
Column name: Acquity CSHC18
Retention time: 0.596 min
Base peak: 132.10263
Precursor m/z: 132.10263
Precursor type: [M+H]+
m/z	relative intensity
86.0973	999
114.9714	7
114.9715	7
130.0077	7
132.1026	7
133.1058	7
137.9882	7
145.0184	7
149.9616	7
160.9897	7
172.8625	209
258.1714	7
