Mass spectrum: METHYL JASMONATE; LC-ESI-QFT; MS2; CE: 30eV;  [M-H]-
Name: METHYL JASMONATE
Class: NA
Formula: C13H20O3
Exact mass: 224.14124
SMILES: CC\C=C/C[C@@H]1[C@@H](CC(=O)OC)CCC1=O
InChI: InChI=1S/C13H20O3/c1-3-4-5-6-11-10(7-8-12(11)14)9-13(15)16-2/h4-5,10-11H,3,6-9H2,1-2H3/b5-4-/t10-,11-/m1/s1
Instrument: Q-Exactive Orbitrap, Thermo Scientfic; Ultimate 3000 HPLC, Thermo Scientfic
Instrument type: LC-ESI-QFT
Ms type: MS2
Ion mode: NEGATIVE
Ionization: ESI
Collision energy: 30eV
Column name: Acquity CSHC18
Retention time: 9.610 min
Base peak: 223.1340
Precursor m/z: 223.1340
Precursor type: [M-H]-
Precursor intensity: 116
m/z	relative intensity
51.7471	73
59.1955	81
62.17	87
66.8055	99
71.5113	86
78.3827	89
80.5111	85
89.3236	82
92.7762	101
110.0006	91
110.7203	84
115.5114	98
123.9006	118
166.0623	999
176.8365	123
193.6095	104
195.1382	805
222.9487	121
223.0279	717
223.1331	931
223.8388	478
