Mass spectrum: Quercetin; LC-ESI-ITFT; MS2; CE: 35;  [M-H]-
Name: Quercetin
Class: Flavonoids
Formula: C15H10O7
Exact mass: 302.0427
SMILES: C1=CC(=C(C=C1C2=C(C(C3=C(C=C(C=C3O2)O)O)=O)O)O)O
InChI: InChI=1S/C15H10O7/c16-7-4-10(19)12-11(5-7)22-15(14(21)13(12)20)6-1-2-8(17)9(18)3-6/h1-5,16-19,21H
Instrument: LTQ-Orbitrap Elite, Thermo Scientific Ultimate 3000 ultra-high-pressure liquid chromatography, Thermo Scientific
Instrument type: LC-ESI-ITFT
Ms type: MS2
Ion mode: NEGATIVE
Ionization: ESI
Collision energy: 35
Column name: Acquity CSHC18
Retention time: 8.688 min
Base peak: 301.0351
Precursor m/z: 301.0351
Precursor type: [M-H]-
Precursor intensity: 9422410
m/z	relative intensity
151.003	8
206.2975	9
301.026	32
301.3674	999
