Mass spectrum: LITHOCHOLATE; LC-ESI-QFT; MS2; CE: 30eV;  [M-H]-
Name: LITHOCHOLATE
Class: NA
Formula: C24H40O3
Exact mass: 376.29775
SMILES: [H][C@@]12CC[C@H]([C@H](C)CCC(O)=O)[C@@]1(C)CC[C@@]1([H])[C@@]2([H])CCC2C[C@H](O)CC[C@]12C
InChI: InChI=1S/C24H40O3/c1-15(4-9-22(26)27)19-7-8-20-18-6-5-16-14-17(25)10-12-23(16,2)21(18)11-13-24(19,20)3/h15-21,25H,4-14H2,1-3H3,(H,26,27)/t15-,16?,17-,18+,19-,20+,21+,23+,24-/m1/s1
Instrument: Q-Exactive Orbitrap, Thermo Scientfic; Ultimate 3000 HPLC, Thermo Scientfic
Instrument type: LC-ESI-QFT
Ms type: MS2
Ion mode: NEGATIVE
Ionization: ESI
Collision energy: 30eV
Column name: Acquity CSHC18
Retention time: 12.252 min
Base peak: 375.2905
Precursor m/z: 375.2905
Precursor type: [M-H]-
Precursor intensity: 193
m/z	relative intensity
50.3502	40
51.1153	38
51.3911	53
64.1528	49
73.6369	50
82.0481	50
88.4868	46
103.0602	46
120.9583	53
127.1779	55
174.2098	53
178.6747	54
185.3581	57
199.0313	63
210.8482	54
288.8015	55
375.2902	999
376.293	97
