Mass spectrum: 3,5-Diiodo-L-tyrosine; ESI-TOF; MS2; CE: 6.0000000;  [M+H]+
Name: 3,5-Diiodo-L-tyrosine
Class: NA
Formula: C9H9I2NO3
Exact mass: 432.86719
SMILES: NC(CC1=CC(I)=C(O)C(I)=C1)C(O)=O
InChI: InChI=1S/C9H9I2NO3/c10-5-1-4(2-6(11)8(5)13)3-7(12)9(14)15/h1-2,7,13H,3,12H2,(H,14,15)
Instrument: waters xevo g2 TOF
Instrument type: ESI-TOF
Ms type: MS2
Ion mode: POSITIVE
Ionization: ESI
Collision energy: 6.0000000
Column name: Acquity CSHC18
Retention time: 2.024 min
Base peak: 433.87519
Precursor m/z: 433.87519
Precursor type: [M+H]+
m/z	relative intensity
128.9873	4
135.0449	6
137.9884	41
163.0641	1
186.2217	2
209.1096	1
215.1261	10
232.9458	1
251.1511	36
252.1552	5
260.9653	13
261.4669	1
271.9331	7
273.1328	20
283.9699	3
289.9441	246
290.9474	26
291.9472	1
327.2025	2
370.8426	15
374.8377	35
375.8405	2
387.8694	999
388.8723	101
389.8746	7
398.8375	9
415.2567	1
416.8482	566
417.851	61
418.8537	5
432.8697	4
434.3636	746
