Mass spectrum: Isorhamnetin; LC-ESI-QFT; MS2; CE: 15,30,45 (NCE);  [M-H]-
Name: Isorhamnetin
Class: NA
Formula: C16H12O7
Exact mass: 316.0583
SMILES: COC1=C(O)C=CC(=C1)C1=C(O)C(=O)C2=C(O)C=C(O)C=C2O1
InChI: InChI=1S/C16H12O7/c1-22-11-4-7(2-3-9(11)18)16-15(21)14(20)13-10(19)5-8(17)6-12(13)23-16/h2-6,17-19,21H,1H3
Instrument: QE Focus, Thermo Scientfic; UPLC I-Class, Waters
Instrument type: LC-ESI-QFT
Ms type: MS2
Ion mode: NEGATIVE
Ionization: ESI
Collision energy: 15,30,45 (NCE)
Column name: Acquity CSHC18
Retention time: 2.517 min
Base peak: 315.0514
Precursor m/z: 315.0514
Precursor type: [M-H]-
Precursor intensity: 57015390
m/z	relative intensity
76.2231	450
148.0155	459
271.0258	999
