Mass spectrum: (+)-Catechin; LC-ESI-QTOF; MS2; CE: 15;  [M-H2O-H]-
Name: (+)-Catechin
Class: NA
Formula: C15H16O7
Exact mass: 308.0896
SMILES: C1C(C(OC2=CC(=CC(=C21)O)O)C3=CC(=C(C=C3)O)O)O.O
InChI: InChI=1S/C15H14O6.H2O/c16-8-4-11(18)9-6-13(20)15(21-14(9)5-8)7-1-2-10(17)12(19)3-7;/h1-5,13,15-20H,6H2;1H2
Instrument: Bruker MicrOTOF-Q
Instrument type: LC-ESI-QTOF
Ms type: MS2
Ion mode: NEGATIVE
Ionization: ESI
Collision energy: 15
Column name: Acquity CSHC18
Retention time: NA
Base peak: 289.0718
Precursor m/z: 289.0718
Precursor type: [M-H2O-H]-
m/z	relative intensity
46.2143	6
53.6204	7
62.7459	6
65.1465	6
70.8225	7
71.7646	6
87.3541	8
94.2949	6
97.0283	24
99.1848	6
99.7037	7
103.1502	6
104.1375	6
108.0271	19
108.6231	10
109.0297	502
110.0308	26
111.0454	10
111.6785	6
113.9423	8
116.2299	6
118.2598	6
121.0271	68
122.232	14
123.0451	355
124.0475	14
124.9161	120
125.4586	6
126.0303	34
127.1476	6
129.7657	6
133.7026	6
135.0432	31
136.8053	81
138.0281	38
139.0404	116
140.0352	6
143.0521	8
143.8942	8
145.0285	23
146.0351	11
147.0465	13
149.0247	217
150.0345	34
151.055	120
152.0447	19
157.0669	18
158.0358	7
159.0401	17
160.0527	53
161.0594	164
162.0372	49
163.038	66
164.012	91
164.9016	77
165.4897	6
166.0236	34
166.8494	58
168.0268	8
171.9812	8
173.0613	27
174.035	19
175.0467	69
176.0397	10
177.0576	25
179.0346	216
180.0413	36
181.0472	8
183.0647	10
184.0535	18
185.0624	44
186.0677	34
187.02	136
187.936	148
189.0489	42
190.0329	15
191.0288	8
195.0513	6
199.0754	84
200.0354	6
201.0544	62
203.5271	169
206.0513	94
209.0585	15
211.0379	7
212.046	42
213.0465	15
217.0844	119
218.0705	10
220.397	8
221.0814	999
222.0842	127
226.061	11
227.0712	303
228.0716	44
229.0472	47
230.0574	101
231.0311	88
232.032	9
243.0654	15
244.5794	170
246.0835	219
247.0612	219
248.0654	37
271.0609	96
272.0642	17
287.9354	9
288.9619	583
289.5473	6
290.0735	154
291.0832	8
