Mass spectrum: 7-Methoxyquercetin; LC-ESI-QTOF; MS2; CE: 50eV;  [M+H]+
Name: 7-Methoxyquercetin
Class: Flavonol
Formula: C16H12O7
Exact mass: 316.0583
SMILES: COC1=CC(=C2C(=C1)OC(=C(C2=O)O)C3=CC(=C(C=C3)O)O)O
InChI: InChI=1S/C16H12O7/c1-22-8-5-11(19)13-12(6-8)23-16(15(21)14(13)20)7-2-3-9(17)10(18)4-7/h2-6,17-19,21H,1H3
Instrument: TIMS-TOF Pro, Bruker Daltonik; Elute UHPLC System, Bruker Daltonik
Instrument type: LC-ESI-QTOF
Ms type: MS2
Ion mode: POSITIVE
Ionization: ESI
Collision energy: 50eV
Column name: Acquity CSHC18
Retention time: 8.223 min
Base peak: 317.0639
Precursor m/z: 317.0639
Precursor type: [M+H]+
Precursor intensity: 112891.8
m/z	relative intensity
51.0253	2
65.0392	3
67.0454	2
82.4182	1
95.0466	3
111.0453	6
121.0257	3
122.9727	2
123.0079	5
123.0448	31
124.0147	6
125.0221	1
129.0473	3
134.0367	8
137.0234	9
138.3695	2
144.0251	1
144.0556	4
150	2
151.0355	4
164.0386	3
167.0312	16
169.0654	2
172.0056	2
179.0323	3
184.0539	4
200.0105	3
200.0442	6
214.0622	2
218.0079	2
228.037	10
232.0025	1
242.0339	1
243.0618	8
245.0422	3
253.0492	1
257.0399	3
273.0397	5
274.0447	16
275.049	3
288.0612	3
302.0412	8
316.5952	3
316.9368	2
317.0611	999
