Mass spectrum: 1H-Indazole; LC-ESI-QTOF; MS2; CE: 15.00;  [M+H]+
Name: 1H-Indazole
Class: NA
Formula: C7H6N2
Exact mass: 118.0531
SMILES: C1=CC=C2C(=C1)C=NN2
InChI: InChI=1S/C7H6N2/c1-2-4-7-6(3-1)5-8-9-7/h1-5H,(H,8,9)
Instrument: Bruker MicrOTOF-Q
Instrument type: LC-ESI-QTOF
Ms type: MS2
Ion mode: POSITIVE
Ionization: ESI
Collision energy: 15.00
Column name: Acquity CSHC18
Retention time: NA
Base peak: 119.0604
Precursor m/z: 119.0604
Precursor type: [M+H]+
m/z	relative intensity
118.0527	24
119.0606	999
119.1693	1
119.2112	1
119.3301	2
120.0634	101
121.0615	1
