Mass spectrum: GALACTARATE; LC-ESI-QTOF; MS2; CE: 10;  [M-H]-
Name: GALACTARATE
Class: NA
Formula: C6H10O8
Exact mass: 210.03757
SMILES: O[C@@H]([C@@H](O)[C@H](O)C(O)=O)[C@@H](O)C(O)=O
InChI: InChI=1S/C6H10O8/c7-1(3(9)5(11)12)2(8)4(10)6(13)14/h1-4,7-10H,(H,11,12)(H,13,14)/t1-,2+,3+,4-
Instrument: Agilent 6530Â Q-TOF LC/MS
Instrument type: LC-ESI-QTOF
Ms type: MS2
Ion mode: NEGATIVE
Ionization: ESI
Collision energy: 10
Column name: NA
Retention time: 0.200 min
Base peak: 209.02779
Precursor m/z: 209.02779
Precursor type: [M-H]-
Precursor intensity: 150
m/z	relative intensity
41.0032	159
43.0233	160
55.0219	169
57.0414	173
59.0225	199
71.0256	207
72.9988	236
85.046	343
89.026	435
133.0144	564
191.0234	568
209.0485	999
