Mass spectrum: 3-Methoxytyrosine; ESI-TOF; MS2; CE: 0.6458333;  [M+H]+
Name: 3-Methoxytyrosine
Class: NA
Formula: C10H13NO4
Exact mass: 211.08446
SMILES: COC1=CC(CC(N)C(O)=O)=CC=C1O
InChI: InChI=1S/C10H13NO4/c1-15-9-5-6(2-3-8(9)12)4-7(11)10(13)14/h2-3,5,7,12H,4,11H2,1H3,(H,13,14)
Instrument: waters xevo g2 TOF
Instrument type: ESI-TOF
Ms type: MS2
Ion mode: POSITIVE
Ionization: ESI
Collision energy: 0.6458333
Column name: Acquity CSHC18
Retention time: 0.630 min
Base peak: 212.09246
Precursor m/z: 212.09246
Precursor type: [M+H]+
m/z	relative intensity
65.0399	113
66.0432	3
77.0397	119
78.0469	53
79.0552	93
89.0397	78
91.0553	321
92.0589	10
93.0345	999
94.0383	58
95.05	9
97.0658	2
102.0919	1
103.055	26
106.0541	102
107.05	56
109.0299	5
110.037	79
111.0445	43
116.0505	19
117.0344	46
119.0501	77
121.0483	149
122.068	30
123.0448	4
124.0519	4
125.0606	557
126.064	34
134.0607	412
135.0657	71
137.0607	38
149.0606	442
150.0639	65
151.0695	37
153.0554	169
154.0588	40
163.039	6
166.0869	188
167.0899	20
177.0097	22
181.0575	1
195.066	36
212.0925	25
