Mass spectrum: N,N-DIMETHYLARGININE; LC-ESI-QTOF; MS2; CE: 40;  [M-H]-
Name: N,N-DIMETHYLARGININE
Class: NA
Formula: C8H18N4O2
Exact mass: 202.14298
SMILES: N[C@@H](CCC\N=C(/N)N(C)C)C(O)=O
InChI: InChI=1S/C8H18N4O2/c1-12(2)8(10)11-5-3-4-6(9)7(13)14/h6H,3-5,9H2,1-2H3,(H2,10,11)(H,13,14)/t6-/m0/s1
Instrument: Agilent 6530Â Q-TOF LC/MS
Instrument type: LC-ESI-QTOF
Ms type: MS2
Ion mode: NEGATIVE
Ionization: ESI
Collision energy: 40
Column name: NA
Retention time: 0.200 min
Base peak: 201.13455
Precursor m/z: 201.13455
Precursor type: [M-H]-
Precursor intensity: 150
m/z	relative intensity
41.0266	207
81.0429	250
106.9207	999
