Mass spectrum: Isovanillin; LC-ESI-QTOF; MS2; CE: 15.00;  [M+H]+
Name: Isovanillin
Class: NA
Formula: C8H8O3
Exact mass: 152.0473
SMILES: COC1=C(C=C(C=C1)C=O)O
InChI: InChI=1S/C8H8O3/c1-11-8-3-2-6(5-9)4-7(8)10/h2-5,10H,1H3
Instrument: Bruker MicrOTOF-Q
Instrument type: LC-ESI-QTOF
Ms type: MS2
Ion mode: POSITIVE
Ionization: ESI
Collision energy: 15.00
Column name: Acquity CSHC18
Retention time: NA
Base peak: 153.0546
Precursor m/z: 153.0546
Precursor type: [M+H]+
m/z	relative intensity
65.03	10
66.04	6
81.03	5
92.02	8
93.03	378
94.03	36
95.04	9
95.52	7
97.06	18
102.01	5
107.06	8
109.03	35
110.03	999
110.25	5
111.03	44
124.05	46
125.06	607
126.06	34
138.03	39
151.04	37
152.04	9
153.05	78
154.05	7
170	5
