Mass spectrum: 2,5-dihydroxybenzoic acid; LC-ESI-QTOF; MS2; CE: 15.00;  [M+H]+
Name: 2,5-dihydroxybenzoic acid
Class: NA
Formula: C7H6O4
Exact mass: 154.0266
SMILES: C1=CC(=C(C=C1O)C(=O)O)O
InChI: InChI=1S/C7H6O4/c8-4-1-2-6(9)5(3-4)7(10)11/h1-3,8-9H,(H,10,11)
Instrument: Bruker MicrOTOF-Q
Instrument type: LC-ESI-QTOF
Ms type: MS2
Ion mode: POSITIVE
Ionization: ESI
Collision energy: 15.00
Column name: Acquity CSHC18
Retention time: NA
Base peak: 155.0339
Precursor m/z: 155.0339
Precursor type: [M+H]+
m/z	relative intensity
109.0267	3
136.0124	4
136.9092	3
137.0221	999
137.1972	3
137.2519	3
137.3612	3
137.5572	1
137.6819	1
138.0248	79
138.4312	1
138.5267	1
139.0291	3
140.6314	1
153.0209	1
155.0325	2
156.03	2
228.8796	2
