Mass spectrum: CORTISONE; LC-ESI-QFT; MS2; CE: 30eV;  [M-H]-
Name: CORTISONE
Class: NA
Formula: C21H28O5
Exact mass: 360.19367
SMILES: [H][C@@]12CC[C@](O)(C(=O)CO)[C@@]1(C)CC(=O)[C@@]1([H])[C@@]2([H])CCC2=CC(=O)CC[C@]12C
InChI: InChI=1S/C21H28O5/c1-19-7-5-13(23)9-12(19)3-4-14-15-6-8-21(26,17(25)11-22)20(15,2)10-16(24)18(14)19/h9,14-15,18,22,26H,3-8,10-11H2,1-2H3/t14-,15-,18+,19-,20-,21-/m0/s1
Instrument: Q-Exactive Orbitrap, Thermo Scientfic; Ultimate 3000 HPLC, Thermo Scientfic
Instrument type: LC-ESI-QFT
Ms type: MS2
Ion mode: NEGATIVE
Ionization: ESI
Collision energy: 30eV
Column name: Acquity CSHC18
Retention time: 8.380 min
Base peak: 359.1864
Precursor m/z: 359.1864
Precursor type: [M-H]-
Precursor intensity: 112
m/z	relative intensity
57.0329	4
64.0883	4
71.1766	4
72.715	3
75.6215	4
78.873	4
86.1545	4
86.3307	4
93.6087	4
93.701	4
102.2131	4
103.5501	4
104.0648	4
104.462	4
109.0644	54
110.784	4
123.0798	35
125.0594	59
135.0801	9
136.0515	24
137.0594	152
138.0629	5
138.7461	4
149.0595	7
153.7172	4
179.1068	17
179.6499	4
182.8198	4
203.1066	8
205.711	4
257.1544	52
259.1339	5
267.428	5
271.1341	19
301.1809	174
302.1843	22
311.1653	140
312.1688	16
326.1522	7
329.1758	999
330.1793	111
341.1755	37
344.2061	5
