Mass spectrum: Ascorbic acid; LC-ESI-ITFT; MS2; CE: 10;  [M-H]-
Name: Ascorbic acid
Class: Organoheterocyclic compounds; Dihydrofurans; Furanones
Formula: C6H8O6
Exact mass: 176.03209
SMILES: [H][C@@]1(OC(=O)C(O)=C1O)[C@@H](O)CO
InChI: InChI=1S/C6H8O6/c7-1-2(8)5-3(9)4(10)6(11)12-5/h2,5,7-10H,1H2/t2-,5+/m0/s1
Instrument: Thermo Scientific Q-Exactive Focus
Instrument type: LC-ESI-ITFT
Ms type: MS2
Ion mode: NEGATIVE
Ionization: ESI
Collision energy: 10
Column name: Acquity CSHC18
Retention time: 0.360 min
Base peak: 175.02481
Precursor m/z: 175.02481
Precursor type: [M-H]-
m/z	relative intensity
59.0127	135
71.0127	252
72.9919	13
73.0283	24
85.0283	15
87.0076	247
112.9869	13
115.0026	999
146.9602	103
175.024	455
