Mass spectrum: Chrysin; LC-ESI-QTOF; MS2; CE: 50eV;  [M-H]-
Name: Chrysin
Class: Falvone
Formula: C15H10O4
Exact mass: 254.0579
SMILES: C1=CC=C(C=C1)C2=CC(=O)C3=C(C=C(C=C3O2)O)O
InChI: InChI=1S/C15H10O4/c16-10-6-11(17)15-12(18)8-13(19-14(15)7-10)9-4-2-1-3-5-9/h1-8,16-17H
Instrument: TIMS-TOF Pro, Bruker Daltonik; Elute UHPLC System, Bruker Daltonik
Instrument type: LC-ESI-QTOF
Ms type: MS2
Ion mode: NEGATIVE
Ionization: ESI
Collision energy: 50eV
Column name: Acquity CSHC18
Retention time: 8.823 min
Base peak: 253.0474
Precursor m/z: 253.0474
Precursor type: [M-H]-
Precursor intensity: 845731.2
m/z	relative intensity
24.3129	2
31.4419	3
35.4664	3
41.0025	70
41.2988	2
47.6055	1
50.2098	6
63.0236	285
63.1372	2
63.3169	4
64.0264	24
65.0029	278
65.1237	3
66.0059	16
67.0179	3
72.8015	5
77.0387	60
77.453	3
78.0314	4
79.0192	6
81.8929	2
83.0125	19
89.001	47
90.0049	7
91.9903	8
92.5567	3
94.5132	5
100.3299	2
101.0387	68
102.0396	3
107.0123	26
108.1637	3
114.9155	3
116.0592	5
118.038	3
119.0491	100
119.2573	2
120.0559	3
122.8972	6
125.0371	9
126.0282	3
129.4155	3
131.304	9
132.6407	5
134.0646	4
134.8874	3
136.664	1
139.0503	3
140.8746	5
142.7598	4
143.05	43
144.0532	9
145.0275	65
145.3087	3
146.0318	8
148.1602	2
151.0007	5
152.0624	3
153.614	5
155.8873	5
157.3534	3
161.0437	4
165.0684	13
169.028	3
178.8421	3
180.0566	3
181.0629	11
183.0414	4
185.0543	3
185.4814	3
193.1676	5
195.4732	6
203.573	1
208.0495	5
209.0582	62
210.0625	10
211.0371	11
223.7051	1
252.8694	3
252.9822	999
253.2663	7
253.4774	9
