Mass spectrum: Gallic acid; LC-ESI-QTOF; MS2; CE: 7-62eV;  [M-H]-
Name: Gallic acid
Class: Phenolics
Formula: C7H6O5
Exact mass: 170.0215
SMILES: C1=C(C=C(C(=C1O)O)O)C(=O)O
InChI: InChI=1S/C7H6O5/c8-4-1-3(7(11)12)2-5(9)6(4)10/h1-2,8-10H,(H,11,12)
Instrument: Bruker MicrOTOF-Q
Instrument type: LC-ESI-QTOF
Ms type: MS2
Ion mode: NEGATIVE
Ionization: ESI
Collision energy: 7-62eV
Column name: Acquity CSHC18
Retention time: 2.768 min
Base peak: 169.0147
Precursor m/z: 169.0147
Precursor type: [M-H]-
Precursor intensity: 47482.31
m/z	relative intensity
125.0293	278
169.0189	999
