Mass spectrum: Guaiacol; ESI-TOF; MS2; CE: 0.6458333;  [M+H]+
Name: Guaiacol
Class: NA
Formula: C7H8O2
Exact mass: 124.05243
SMILES: COC1=CC=CC=C1O
InChI: InChI=1S/C7H8O2/c1-9-7-5-3-2-4-6(7)8/h2-5,8H,1H3
Instrument: waters xevo g2 TOF
Instrument type: ESI-TOF
Ms type: MS2
Ion mode: POSITIVE
Ionization: ESI
Collision energy: 0.6458333
Column name: Acquity CSHC18
Retention time: 2.241 min
Base peak: 125.06043
Precursor m/z: 125.06043
Precursor type: [M+H]+
m/z	relative intensity
65.0398	21
69.0345	49
77.0395	222
89.043	145
95.0494	186
96.053	2
101.0603	671
102.0642	27
109.0283	2
115.0653	166
116.0543	162
121.0297	29
122.036	56
123.0442	91
123.5135	12
124.0509	57
125.0601	2
128.0491	297
129.0551	202
130.011	2
131.0496	77
132.0146	23
135.5344	11
135.9925	57
137.0141	147
139.9883	2
143.0707	33
144.5192	29
145.0633	212
146.0337	54
147.5648	2
147.9831	262
148.5451	2
149.0267	2
151.0224	32
153.0528	26
153.5254	23
154.0012	37
156.5317	2
157.0669	674
158.1303	41
159.0807	126
160.0528	49
161.9726	38
162.999	35
163.9555	999
164.9628	434
165.9562	39
168.0411	2
168.9932	20
171.0442	92
172.0521	519
172.9832	2
176.5415	2
177.0516	2
178.0483	2
178.9785	38
179.9875	2
180.9611	28
181.9667	193
183.0445	497
184.051	194
184.5562	2
185.0598	515
186.0653	2
187.0756	798
188.0789	78
192.9806	15
195.0262	2
195.9819	79
198.0652	29
199.0384	67
200.0469	359
203.0704	678
204.9821	2
208.0017	20
208.9826	30
209.9985	2
211.0272	88
212.0146	32
213.0548	188
214.0663	85
215.0706	31
216.074	187
219.0331	43
220.0073	2
221.0138	2
222.0498	2
223.9772	35
224.9802	2
229.0847	96
231.038	199
232.0382	36
236.082	22
237.0866	2
242.0976	2
243.0235	76
243.9827	49
245.0805	387
245.5689	2
246.0884	513
247.0615	63
248.0995	2
249.1029	2
251.1123	5
253.0766	2
253.9672	50
258.0473	51
268.07	160
269.0322	71
270.0503	96
272.0048	526
272.9796	186
274.0431	45
275.0248	2
283.1169	2
285.0431	118
285.993	113
286.5836	2
287.0007	719
291.0327	31
299.0904	2
300.026	2
302.024	334
303.0229	185
304.0298	2
305.0456	23
307.0024	29
320.041	14
323.0279	2
329.0586	4
331.0486	41
343.0506	2
344.0404	2
346.0147	51
347.0197	23
351.0232	2
357.0756	2
358.036	2
367.0127	2
369.1334	2
370.1355	2
372.9889	52
380.0581	41
387.0055	2
391.1153	2
394.013	117
395.0483	26
398.0333	2
401.9844	2
409.0394	125
410.0372	39
423.0471	2
424.0605	2
425.0646	2
426.0994	2
511.1387	2
512.1417	2
513.1506	2
515.1643	2
517.116	2
519.1201	11
531.0721	47
534.1495	14
546.0993	43
547.1057	2
548.0995	2
549.1022	10
569.3142	55
570.3169	2
