Mass spectrum: H-Phe-Ile-OH; LC-ESI-QTOF; MS2; CE: 15.00;  [M-H]-
Name: H-Phe-Ile-OH
Class: NA
Formula: C15H22N2O3
Exact mass: 278.1630
SMILES: CCC(C)C(C(=O)O)NC(=O)C(CC1=CC=CC=C1)N
InChI: InChI=1S/C15H22N2O3/c1-3-10(2)13(15(19)20)17-14(18)12(16)9-11-7-5-4-6-8-11/h4-8,10,12-13H,3,9,16H2,1-2H3,(H,17,18)(H,19,20)
Instrument: Bruker MicrOTOF-Q
Instrument type: LC-ESI-QTOF
Ms type: MS2
Ion mode: NEGATIVE
Ionization: ESI
Collision energy: 15.00
Column name: Acquity CSHC18
Retention time: NA
Base peak: 277.1558
Precursor m/z: 277.1558
Precursor type: [M-H]-
m/z	relative intensity
130.09	938
141.1	691
216.14	666
217.14	103
277.16	999
278.16	197
