Mass spectrum: 6-Hydroxymelatonin; LC-ESI-ITFT; MS2; CE: 10;  [M+H]+
Name: 6-Hydroxymelatonin
Class: Organoheterocyclic compounds; Indoles and derivatives; Hydroxyindoles
Formula: C13H16N2O3
Exact mass: 248.11609
SMILES: COC1=C(O)C=C2NC=C(CCNC(C)=O)C2=C1
InChI: InChI=1S/C13H16N2O3/c1-8(16)14-4-3-9-7-15-11-6-12(17)13(18-2)5-10(9)11/h5-7,15,17H,3-4H2,1-2H3,(H,14,16)
Instrument: Thermo Scientific Q-Exactive Focus
Instrument type: LC-ESI-ITFT
Ms type: MS2
Ion mode: POSITIVE
Ionization: ESI
Collision energy: 10
Column name: Acquity CSHC18
Retention time: 0.348 min
Base peak: 249.12337
Precursor m/z: 249.12337
Precursor type: [M+H]+
m/z	relative intensity
130.0653	2
158.0601	26
175.0626	2
190.0796	1
190.0865	999
207.1129	2
220.0967	2
232.0967	34
249.1233	159
249.1572	2
