Mass spectrum: Creatine; LC-ESI-ITFT; MS2; CE: 10;  [M-H]-
Name: Creatine
Class: Organic acids and derivatives; Carboxylic acids and derivatives; Amino acids, peptides, and analogues
Formula: C4H9N3O2
Exact mass: 131.06948
SMILES: CN(CC(O)=O)C(N)=N
InChI: InChI=1S/C4H9N3O2/c1-7(4(5)6)2-3(8)9/h2H2,1H3,(H3,5,6)(H,8,9)
Instrument: Thermo Scientific Q-Exactive Focus
Instrument type: LC-ESI-ITFT
Ms type: MS2
Ion mode: NEGATIVE
Ionization: ESI
Collision energy: 10
Column name: Acquity CSHC18
Retention time: 0.364 min
Base peak: 130.06219
Precursor m/z: 130.06219
Precursor type: [M-H]-
m/z	relative intensity
61.9872	8
67.6899	1
71.0958	1
88.0392	999
97.0269	1
103.5879	1
103.6341	1
112.0505	3
128.5287	1
130.0611	3
