Mass spectrum: N-Arachidonoyldopamine; LC-ESI-ITFT; MS2; CE: 100;  [M+H]+
Name: N-Arachidonoyldopamine
Class: NA
Formula: C28H41NO3
Exact mass: 439.30864
SMILES: CCCCC/C=C\C/C=C\C/C=C\C/C=C\CCCC(=O)NCCC1=CC(=C(C=C1)O)O
InChI: InChI=1S/C28H41NO3/c1-2-3-4-5-6-7-8-9-10-11-12-13-14-15-16-17-18-19-28(32)29-23-22-25-20-21-26(30)27(31)24-25/h6-7,9-10,12-13,15-16,20-21,24,30-31H,2-5,8,11,14,17-19,22-23H2,1H3,(H,29,32)/b7-6-,10-9-,13-12-,16-15-
Instrument: Thermo Scientific Q-Exactive Focus
Instrument type: LC-ESI-ITFT
Ms type: MS2
Ion mode: POSITIVE
Ionization: ESI
Collision energy: 100
Column name: Acquity CSHC18
Retention time: 2.570 min
Base peak: 440.31592
Precursor m/z: 440.31592
Precursor type: [M+H]+
m/z	relative intensity
53.0027	41
53.0391	57
55.0548	51
56.9653	49
65.0391	377
67.0547	97
79.0546	111
91.0546	999
95.0494	94
119.0492	36
