Mass spectrum: H-Leu-Leu-OH; LC-ESI-QTOF; MS2; CE: 15.00;  [M+H]+
Name: H-Leu-Leu-OH
Class: NA
Formula: C12H24N2O3
Exact mass: 244.1787
SMILES: CC(C)CC(C(=O)NC(CC(C)C)C(=O)O)N
InChI: InChI=1S/C12H24N2O3/c1-7(2)5-9(13)11(15)14-10(12(16)17)6-8(3)4/h7-10H,5-6,13H2,1-4H3,(H,14,15)(H,16,17)
Instrument: Bruker MicrOTOF-Q
Instrument type: LC-ESI-QTOF
Ms type: MS2
Ion mode: POSITIVE
Ionization: ESI
Collision energy: 15.00
Column name: Acquity CSHC18
Retention time: NA
Base peak: 245.1860
Precursor m/z: 245.1860
Precursor type: [M+H]+
m/z	relative intensity
164.14	10
181.17	18
182.17	12
183.18	26
184.17	10
199.18	812
200.18	125
210.1	11
210.16	19
227.18	66
228.16	46
229.17	14
245.18	999
245.32	12
245.38	10
246.19	130
344.22	11
