Mass spectrum: 2-Aminobenzoic acid (Anthranilic acid); ESI-TOF; MS2; CE: 0.6458333;  [M+H]+
Name: 2-Aminobenzoic acid (Anthranilic acid)
Class: NA
Formula: C7H7NO2
Exact mass: 137.04768
SMILES: NC1=CC=CC=C1C(O)=O
InChI: InChI=1S/C7H7NO2/c8-6-4-2-1-3-5(6)7(9)10/h1-4H,8H2,(H,9,10)
Instrument: waters xevo g2 TOF
Instrument type: ESI-TOF
Ms type: MS2
Ion mode: POSITIVE
Ionization: ESI
Collision energy: 0.6458333
Column name: Acquity CSHC18
Retention time: 2.136 min
Base peak: 138.05568
Precursor m/z: 138.05568
Precursor type: [M+H]+
m/z	relative intensity
55.0558	16
65.0399	190
66.043	13
73.029	5
85.0654	10
92.0503	999
93.0371	3
101.9624	1
106.036	2
110.0606	16
115.0126	1
120.2091	123
121.2468	41
124.0474	10
129.9721	3
132.0128	7
137.0595	15
140.9966	3
146.966	6
149.986	2
151.0086	3
153.062	1
154.0718	16
157.0756	2
160.0369	4
166.0649	14
167.071	5
167.9865	3
171.0593	3
176.0478	7
179.0615	6
180.0675	10
180.9904	2
182.0598	11
183.0917	7
193.0172	1
193.9743	2
197.0702	2
208.0625	18
209.0713	44
211.0576	3
226.0817	4
227.0588	11
236.0699	3
238.0205	1
241.0945	2
251.0472	1
253.0609	5
254.0665	16
257.0997	5
258.0609	1
272.0776	7
274.0375	5
285.0819	2
291.0328	2
298.0963	1
300.1146	1
310.0043	4
326.0966	1
331.9853	1
344.1034	1
345.2007	1
348.0505	1
365.9862	2
371.9758	4
372.9891	3
524.9894	2
569.3153	5
