Mass spectrum: Sphingosine 1-phosphate; LC-ESI-ITFT; MS2; CE: 40;  [M+H]+
Name: Sphingosine 1-phosphate
Class: Lipids and lipid-like molecules; Sphingolipids; Phosphosphingolipids
Formula: C18H38NO5P
Exact mass: 379.24876
SMILES: CCCCCCCCCCCCC\C=C\[C@@H](O)[C@@H](N)COP(O)(O)=O
InChI: InChI=1S/C18H38NO5P/c1-2-3-4-5-6-7-8-9-10-11-12-13-14-15-18(20)17(19)16-24-25(21,22)23/h14-15,17-18,20H,2-13,16,19H2,1H3,(H2,21,22,23)/b15-14+/t17-,18+/m0/s1
Instrument: Thermo Scientific Q-Exactive Focus
Instrument type: LC-ESI-ITFT
Ms type: MS2
Ion mode: POSITIVE
Ionization: ESI
Collision energy: 40
Column name: Acquity CSHC18
Retention time: 1.467 min
Base peak: 380.25604
Precursor m/z: 380.25604
Precursor type: [M+H]+
m/z	relative intensity
55.0548	79
67.0547	127
79.0546	224
81.0577	86
81.0702	108
82.0655	999
93.0701	178
96.081	240
262.2524	128
264.2681	227
