Mass spectrum: 3-Chlorotyrosine; ESI-TOF; MS2; CE: 0.6458333;  [M+H]+
Name: 3-Chlorotyrosine
Class: NA
Formula: C9H10ClNO3
Exact mass: 215.03492
SMILES: NC(CC1=CC(Cl)=C(O)C=C1)C(O)=O
InChI: InChI=1S/C9H10ClNO3/c10-6-3-5(1-2-8(6)12)4-7(11)9(13)14/h1-3,7,12H,4,11H2,(H,13,14)
Instrument: waters xevo g2 TOF
Instrument type: ESI-TOF
Ms type: MS2
Ion mode: POSITIVE
Ionization: ESI
Collision energy: 0.6458333
Column name: Acquity CSHC18
Retention time: 0.981 min
Base peak: 216.04292
Precursor m/z: 216.04292
Precursor type: [M+H]+
m/z	relative intensity
79.0553	22
93.0343	143
94.0418	200
99.001	5
101.9407	18
106.0661	104
107.05	65
116.0505	29
117.0342	36
118.0422	77
125.016	180
127.0128	98
134.0606	999
135.0683	714
141.0099	16
153.0108	436
155.0079	138
157.0056	280
170.0372	783
171.0408	45
172.0345	143
