Mass spectrum: N,N-DIMETHYL-1,4-PHENYLENEDIAMINE; LC-ESI-QTOF; MS2; CE: 40;  [M+H]+
Name: N,N-DIMETHYL-1,4-PHENYLENEDIAMINE
Class: NA
Formula: C8H12N2
Exact mass: 136.10005
SMILES: CN(C)C1=CC=C(C=C1)N
InChI: InChI=1S/C8H12N2/c1-10(2)8-5-3-7(9)4-6-8/h3-6H,9H2,1-2H3
Instrument: Agilent 6530Â Q-TOF LC/MS
Instrument type: LC-ESI-QTOF
Ms type: MS2
Ion mode: POSITIVE
Ionization: ESI
Collision energy: 40
Column name: NA
Retention time: 0.200 min
Base peak: 137.10488
Precursor m/z: 137.10488
Precursor type: [M+H]+
Precursor intensity: 150.5
m/z	relative intensity
42.0325	20
51.0271	21
53.0633	22
54.0426	24
55.0245	24
63.0429	25
64.0182	26
65.0541	28
66.0517	28
67.0405	29
77.0506	35
78.0499	47
79.0429	56
80.2493	57
80.6123	67
80.8389	76
80.9084	86
81.0606	102
90.0453	111
92.0523	116
93.0723	131
94.073	131
106.0552	136
107.1147	176
107.4834	192
107.7113	206
119.0555	550
121.0934	553
122.0982	999
