Mass spectrum: Cysteic acid; LC-ESI-ITFT; MS2; CE: 20;  [M+H]+
Name: Cysteic acid
Class: Organic acids and derivatives; Carboxylic acids and derivatives; Amino acids, peptides, and analogues
Formula: C3H7NO5S
Exact mass: 169.00449
SMILES: NC(CS(O)(=O)=O)C(O)=O
InChI: InChI=1S/C3H7NO5S/c4-2(3(5)6)1-10(7,8)9/h2H,1,4H2,(H,5,6)(H,7,8,9)
Instrument: Thermo Scientific Q-Exactive Focus
Instrument type: LC-ESI-ITFT
Ms type: MS2
Ion mode: POSITIVE
Ionization: ESI
Collision energy: 20
Column name: Acquity CSHC18
Retention time: 0.631 min
Base peak: 170.01176
Precursor m/z: 170.01176
Precursor type: [M+H]+
m/z	relative intensity
58.0292	5
60.0449	14
87.9853	5
88.0395	5
92.5241	5
93.0576	3
105.9959	854
124.0063	999
158.0918	3
160.7482	2
