Mass spectrum: GSSG; LC-ESI-QTOF; MS2; CE: 100;  [M-H]-
Name: GSSG
Class: NA
Formula: C20H32N6O12S2
Exact mass: 612.1520
SMILES: C(CC(=O)NC(CSSCC(C(=O)NCC(=O)O)NC(=O)CCC(C(=O)O)N)C(=O)NCC(=O)O)C(C(=O)O)N
InChI: InChI=1S/C20H32N6O12S2/c21-9(19(35)36)1-3-13(27)25-11(17(33)23-5-15(29)30)7-39-40-8-12(18(34)24-6-16(31)32)26-14(28)4-2-10(22)20(37)38/h9-12H,1-8,21-22H2,(H,23,33)(H,24,34)(H,25,27)(H,26,28)(H,29,30)(H,31,32)(H,35,36)(H,37,38)
Instrument: impact II
Instrument type: LC-ESI-QTOF
Ms type: MS2
Ion mode: NEGATIVE
Ionization: ESI
Collision energy: 100
Column name: Acquity CSHC18
Retention time: 1.852 min
Base peak: 611.1439
Precursor m/z: 611.1439
Precursor type: [M-H]-
m/z	relative intensity
85.8313	251
112.0438	285
124.0439	338
127.5431	537
142.0565	999
