Mass spectrum: L-Allothreonine; ESI-TOF; MS2; CE: 0.6458333;  [M+H]+
Name: L-Allothreonine
Class: NA
Formula: C4H9NO3
Exact mass: 119.05824
SMILES: CC(O)C(N)C(O)=O
InChI: InChI=1S/C4H9NO3/c1-2(6)3(5)4(7)8/h2-3,6H,5H2,1H3,(H,7,8)
Instrument: waters xevo g2 TOF
Instrument type: ESI-TOF
Ms type: MS2
Ion mode: POSITIVE
Ionization: ESI
Collision energy: 0.6458333
Column name: Acquity CSHC18
Retention time: 0.503 min
Base peak: 120.06624
Precursor m/z: 120.06624
Precursor type: [M+H]+
m/z	relative intensity
72.939	217
74.0616	4
74.9547	172
98.9634	999
99.9706	915
100.9576	503
101.9411	4
102.9552	58
103.0596	4
103.1312	4
109.9677	29
115.967	45
119.9771	4
120.0662	111
121.0702	4
129.8818	62
131.9515	34
137.9892	4
140.9641	4
142.0484	86
147.9697	26
156.9865	4
159.9709	4
163.0324	4
168.9839	4
169.9786	4
173.8725	4
175.9625	4
183.9609	4
186.0476	4
201.0092	4
201.9937	4
202.8732	62
203.9843	63
204.991	4
217.8606	114
219.99	4
233.044	4
246.8642	76
248.01	4
248.863	4
249.0163	4
258.1713	4
258.8863	4
262.8687	4
269.9907	4
332.9327	34
441.3289	4
584.0752	4
