Mass spectrum: 3-Glc-Ara-28-Glc-Hederagenin; ESI-QTOF; MS2; CE: 30 eV;  [M-H]-
Name: 3-Glc-Ara-28-Glc-Hederagenin
Class: Saponin
Formula: C47H76O18
Exact mass: 928.5032
SMILES: CC1(C)CCC2(CCC3(C)C(=CCC4(C5(C)CCC(C(C)(CO)C5(CCC43C)[H])(OC6(C(C(C(CO6)(O)[H])(O)[H])(OC7(C(C(C(C(CO)(O7)[H])(O)[H])(O)[H])(O)[H])[H])[H])[H])[H])[H])C2(C1)[H])C(=O)OC8(C(C(C(C(CO)(O8)[H])(O)[H])(O)[H])(O)[H])[H]
InChI: InChI=1S/C47H76O18/c1-42(2)13-15-47(41(59)65-39-36(58)34(56)32(54)26(19-49)62-39)16-14-45(5)22(23(47)17-42)7-8-28-43(3)11-10-29(44(4,21-50)27(43)9-12-46(28,45)6)63-40-37(30(52)24(51)20-60-40)64-38-35(57)33(55)31(53)25(18-48)61-38/h7,23-40,48-58H,8-21H2,1-6H3
Instrument: Synapt (HDMS 1st gen)
Instrument type: ESI-QTOF
Ms type: MS2
Ion mode: NEGATIVE
Ionization: ESI
Collision energy: 30 eV
Column name: Acquity CSHC18
Retention time: 21.233 min
Base peak: 927.4978
Precursor m/z: 927.4978
Precursor type: [M-H]-
Precursor intensity: 3312.65
m/z	relative intensity
603.3889	19
765.444	21
765.9387	25
766.4542	29
766.9571	30
767.2342	33
767.463	36
767.8498	43
768.1221	48
768.4351	62
807.457	131
846.4631	256
846.9633	430
927.5026	999
