Mass spectrum: N-Acetyl-D-glucosamine; ESI-TOF; MS2; CE: 6.0000000;  [M+H]+
Name: N-Acetyl-D-glucosamine
Class: NA
Formula: C8H15NO6
Exact mass: 221.08994
SMILES: CC(=O)NC1C(O)OC(CO)C(O)C1O
InChI: InChI=1S/C8H15NO6/c1-3(11)9-5-7(13)6(12)4(2-10)15-8(5)14/h4-8,10,12-14H,2H2,1H3,(H,9,11)
Instrument: waters xevo g2 TOF
Instrument type: ESI-TOF
Ms type: MS2
Ion mode: POSITIVE
Ionization: ESI
Collision energy: 6.0000000
Column name: Acquity CSHC18
Retention time: 0.570 min
Base peak: 222.09794
Precursor m/z: 222.09794
Precursor type: [M+H]+
m/z	relative intensity
96.0448	12
98.0602	14
109.0288	8
113.9641	35
126.0555	146
129.054	8
130.0079	15
138.0105	561
139.0585	97
139.964	8
140.9955	81
141.9593	234
142.9907	22
144.013	155
145.9545	4
168.0662	364
180.9898	20
181.9896	6
186.0771	691
187.0792	43
197.0013	9
204.0875	999
205.0906	88
210.1348	6
214.9889	50
215.996	41
222.0979	183
223.1011	11
