Mass spectrum: Adenosine; LC-ESI-QTOF; MS2; CE: 15.91;  [M+HCOOH-H]-
Name: Adenosine
Class: NA
Formula: C10H13N5O4
Exact mass: 267.0968
SMILES: C1=NC(=C2C(=N1)N(C=N2)C3C(C(C(O3)CO)O)O)N
InChI: InChI=1S/C10H13N5O4/c11-8-5-9(13-2-12-8)15(3-14-5)10-7(18)6(17)4(1-16)19-10/h2-4,6-7,10,16-18H,1H2,(H2,11,12,13)
Instrument: Bruker MicrOTOF-Q
Instrument type: LC-ESI-QTOF
Ms type: MS2
Ion mode: NEGATIVE
Ionization: ESI
Collision energy: 15.91
Column name: Acquity CSHC18
Retention time: NA
Base peak: 312.0950
Precursor m/z: 312.0950
Precursor type: [M+HCOOH-H]-
m/z	relative intensity
45.8181	23
47.3888	26
49.0238	26
50.9622	22
52.7269	25
54.0073	27
55.6633	22
58.2326	25
59.5366	17
61.7103	25
65.3862	25
67.8877	20
68.6778	28
69.4216	20
70.3875	25
71.4677	23
72.1819	27
73.4887	23
74.2611	25
75.2874	23
76.8658	24
77.89	36
78.3735	50
79.5813	26
81.119	24
83.6449	29
86.2043	27
88.0151	19
89.1952	46
89.7418	32
90.8164	26
92.3149	24
93.0887	25
93.9185	20
95.6572	29
97.5257	29
98.6456	21
99.3793	15
100.6987	31
101.9171	22
102.623	24
103.4854	35
104.4086	20
106.1157	34
108.6784	25
111.2231	24
112.8581	23
115.598	25
117.99	28
119.1439	18
119.7651	20
120.6884	13
121.7051	24
123.4808	34
124.5501	21
126.992	24
130.0342	23
130.984	23
134.2125	999
137.281	19
137.882	18
139.0167	24
140.8076	15
143.7573	23
146.3299	24
148.0803	32
149.0776	20
157.8936	20
162.0449	24
164.1346	21
165.656	13
173.0046	21
178.717	18
182.9792	14
186.528	31
188.6142	29
198.3206	22
201.9652	19
205.4185	33
206.9528	23
216.9024	14
220.4294	14
241.1121	23
247.245	27
250.9889	27
261.9256	19
265.6356	158
267.0859	34
270.4769	19
273.2408	17
281.0764	18
298.4185	37
334.4839	31
346.3802	21
352.6237	36
353.2559	17
495.0528	22
575.6637	14
584.2021	25
653.1064	26
665.9374	16
678.5798	14
715.6889	18
760.9496	16
811.7721	14
865.2822	19
882.09	15
946.3344	25
982.5815	25
1000.6286	36
