Mass spectrum: Alpha-Hydroxyhippuric acid; ESI-TOF; MS2; CE: 6.0000000;  [M+H]+
Name: Alpha-Hydroxyhippuric acid
Class: NA
Formula: C9H9NO4
Exact mass: 195.05316
SMILES: OC(NC(=O)C1=CC=CC=C1)C(O)=O
InChI: InChI=1S/C9H9NO4/c11-7(10-8(12)9(13)14)6-4-2-1-3-5-6/h1-5,8,12H,(H,10,11)(H,13,14)
Instrument: waters xevo g2 TOF
Instrument type: ESI-TOF
Ms type: MS2
Ion mode: POSITIVE
Ionization: ESI
Collision energy: 6.0000000
Column name: Acquity CSHC18
Retention time: 1.871 min
Base peak: 196.06116
Precursor m/z: 196.06116
Precursor type: [M+H]+
m/z	relative intensity
105.0346	999
106.0376	54
113.9647	169
117.9823	2
122.0611	747
123.064	63
128.0686	13
131.9517	17
133.137	2
137.9884	332
144.0427	20
145.046	32
156.0426	107
160.0078	130
173.9999	2
176.9884	441
178.0191	33
180.0821	47
184.0596	2
191.0043	44
195.0521	17
