Mass spectrum: Glycerophosphocholine; ESI-TOF; MS2; CE: 0.6458333;  [M+H]+
Name: Glycerophosphocholine
Class: NA
Formula: C8H20NO6P
Exact mass: 257.10282
SMILES: C[N+](C)(C)CCOP([O-])(=O)OCC(O)CO
InChI: InChI=1S/C8H20NO6P/c1-9(2,3)4-5-14-16(12,13)15-7-8(11)6-10/h8,10-11H,4-7H2,1-3H3
Instrument: waters xevo g2 TOF
Instrument type: ESI-TOF
Ms type: MS2
Ion mode: POSITIVE
Ionization: ESI
Collision energy: 0.6458333
Column name: Acquity CSHC18
Retention time: 0.548 min
Base peak: 258.11082
Precursor m/z: 258.11082
Precursor type: [M+H]+
m/z	relative intensity
86.097	145
97.9694	71
104.1075	999
105.1108	54
125.0003	260
126.0041	3
129.5252	4
166.0627	30
181.0258	3
184.0739	103
221.0192	43
237.9935	14
240.0068	6
258.1105	214
259.1138	16
280.0925	75
361.2097	7
515.2138	35
516.2159	5
537.1935	30
537.1956	11
538.197	4
778.3257	2
794.2958	26
796.2887	3
825.226	20
826.2306	16
