Mass spectrum: 15(S)-15-methyl Prostaglandin E1; ESI-TOF; MS2; CE: 6.0000000;  [M+H]+
Name: 15(S)-15-methyl Prostaglandin E1
Class: NA
Formula: C21H36O5
Exact mass: 368.25627
SMILES: CCCCC[C@](C)(O)\C=C\[C@H]1C(O)CC(=O)C1CCCCCCC(=O)O
InChI: InChI=1S/C21H36O5/c1-3-4-9-13-21(2,26)14-12-17-16(18(22)15-19(17)23)10-7-5-6-8-11-20(24)25/h12,14,16-17,19,23,26H,3-11,13,15H2,1-2H3,(H,24,25)/b14-12+/t16?,17-,19?,21+/m1/s1
Instrument: waters xevo g2 TOF
Instrument type: ESI-TOF
Ms type: MS2
Ion mode: POSITIVE
Ionization: ESI
Collision energy: 6.0000000
Column name: Acquity CSHC18
Retention time: 3.805 min
Base peak: 369.26427
Precursor m/z: 369.26427
Precursor type: [M+H]+
m/z	relative intensity
98.9613	8
107.0678	3
127.9792	37
178.9426	5
191.1077	8
193.1205	10
203.1079	25
219.1495	10
279.2318	143
289.215	47
291.2311	105
292.2348	15
297.2209	59
298.2265	10
305.2448	44
306.2497	8
313.2167	15
315.2313	999
316.2366	230
317.2371	17
331.2268	27
333.2411	925
334.2466	198
335.2526	27
349.2346	21
351.2523	479
352.256	98
353.2591	9
370.226	142
370.7266	72
371.2092	21
