Mass spectrum: D (+) -Trehalose; LC-ESI-QTOF; MS2; CE: 34.58;  [2M+HCOOH-H]-
Name: D (+) -Trehalose
Class: NA
Formula: C12H22O11
Exact mass: 342.1162
SMILES: C(C1C(C(C(C(O1)OC2C(C(C(C(O2)CO)O)O)O)O)O)O)O
InChI: InChI=1S/C12H22O11/c13-1-3-5(15)7(17)9(19)11(21-3)23-12-10(20)8(18)6(16)4(2-14)22-12/h3-20H,1-2H2
Instrument: Bruker MicrOTOF-Q
Instrument type: LC-ESI-QTOF
Ms type: MS2
Ion mode: NEGATIVE
Ionization: ESI
Collision energy: 34.58
Column name: Acquity CSHC18
Retention time: NA
Base peak: 729.2306
Precursor m/z: 729.2306
Precursor type: [2M+HCOOH-H]-
m/z	relative intensity
79.1184	4
87.0081	4
89.0232	10
95.0127	7
101.0244	63
113.0254	208
114.0284	18
119.0354	62
121.5619	5
125.024	34
131.0348	104
132.0372	10
142.836	175
144.0402	14
149.0442	48
150.0447	5
158.1478	5
160.6414	5
161.0452	366
162.047	29
178.4585	5
179.3005	332
180.2448	43
181.0633	20
184.2253	4
185.1706	4
190.8049	4
191.2292	4
197.6814	5
205.7648	5
214.5531	5
221.0634	59
222.0648	6
223.395	5
224.0072	4
230.0104	4
230.7772	4
231.7234	4
234.2792	5
234.8477	4
235.6381	5
239.0836	10
244.6401	4
249.255	6
250.2473	6
251.0731	6
254.4326	6
255.122	5
258.8996	4
261.4541	4
261.9321	6
263.065	9
265.8796	4
268.4447	5
270.3841	4
274.4395	4
276.7361	6
277.9461	6
278.7677	5
279.1916	4
279.8721	5
281.1448	16
282.2202	5
283.2278	5
283.7403	5
285.3975	4
288.1886	4
288.7709	4
290.409	4
291.3454	4
292.8699	4
293.5018	5
294.235	4
294.9535	6
295.6657	5
296.4326	5
297.7266	5
299.0951	5
302.7113	6
304.1073	4
306.1452	4
307.0567	4
308.4074	5
309.961	7
311.3089	6
314.2033	4
315.5422	4
316.0868	6
316.9242	4
318.4117	4
321.069	4
322.3274	4
323.0932	17
324.1082	4
324.5315	5
326.7602	4
327.8279	4
329.5514	4
332.2532	4
333.0345	4
334.7617	4
336.9102	5
337.5759	4
338.1826	5
339.7118	38
343.9805	999
347.8913	4
349.0818	4
349.6798	5
385.1005	14
385.8146	6
387.5089	332
389.0549	62
390.1246	12
