Mass spectrum: Methyl sinapate; LC-ESI-QTOF; MS2; CE: 50eV;  [M-H]-
Name: Methyl sinapate
Class: Phenylpropanoid
Formula: C12H14O5
Exact mass: 238.0841
SMILES: COC1=CC(=CC(=C1O)OC)C=CC(=O)OC
InChI: InChI=1S/C12H14O5/c1-15-9-6-8(4-5-11(13)17-3)7-10(16-2)12(9)14/h4-7,14H,1-3H3
Instrument: TIMS-TOF Pro, Bruker Daltonik; Elute UHPLC System, Bruker Daltonik
Instrument type: LC-ESI-QTOF
Ms type: MS2
Ion mode: NEGATIVE
Ionization: ESI
Collision energy: 50eV
Column name: Acquity CSHC18
Retention time: 7.086 min
Base peak: 237.0767
Precursor m/z: 237.0767
Precursor type: [M-H]-
Precursor intensity: 5598.06
m/z	relative intensity
51.0224	95
65.0022	173
91.0167	231
99.0084	148
119.0102	108
147.0063	177
207.0266	907
208.0329	195
222.0497	999
