Mass spectrum: L-Cystathionine; ESI-TOF; MS2; CE: 0.6458333;  [M+H]+
Name: L-Cystathionine
Class: NA
Formula: C7H14N2O4S
Exact mass: 222.06743
SMILES: NC(CCSCC(N)C(O)=O)C(O)=O
InChI: InChI=1S/C7H14N2O4S/c8-4(6(10)11)1-2-14-3-5(9)7(12)13/h4-5H,1-3,8-9H2,(H,10,11)(H,12,13)
Instrument: waters xevo g2 TOF
Instrument type: ESI-TOF
Ms type: MS2
Ion mode: POSITIVE
Ionization: ESI
Collision energy: 0.6458333
Column name: Acquity CSHC18
Retention time: 0.517 min
Base peak: 223.07543
Precursor m/z: 223.07543
Precursor type: [M+H]+
m/z	relative intensity
72.938	69
72.9383	29
88.0222	999
89.025	37
90.018	38
113.9644	1
124.9566	1
129.8795	8
130.9671	1
131.9511	1
134.0276	581
135.0299	28
136.0237	14
137.9658	11
144.9639	9
145.0183	32
147.953	1
158.997	1
160.9905	1
163.0284	1
172.8622	68
184.9856	1
191.0238	1
194.1201	1
200.8571	4
202.8727	9
206.0472	1
213.9221	1
223.0755	41
224.0779	1
225.072	1
231.9966	1
234.9634	1
235.8702	1
239.0698	1
245.0549	1
258.885	1
259.1727	1
261.0244	1
276.9956	1
286.923	1
302.1958	1
365.1027	1
408.7848	1
