Mass spectrum: Homocysteine; LC-ESI-ITFT; MS2; CE: 100;  [M+H]+
Name: Homocysteine
Class: Organic acids and derivatives; Carboxylic acids and derivatives; Amino acids, peptides, and analogues
Formula: C4H9NO2S
Exact mass: 135.03540
SMILES: NC(CCS)C(O)=O
InChI: InChI=1S/C4H9NO2S/c5-3(1-2-8)4(6)7/h3,8H,1-2,5H2,(H,6,7)
Instrument: Thermo Scientific Q-Exactive Focus
Instrument type: LC-ESI-ITFT
Ms type: MS2
Ion mode: POSITIVE
Ionization: ESI
Collision energy: 100
Column name: Acquity CSHC18
Retention time: 2.195 min
Base peak: 136.04268
Precursor m/z: 136.04268
Precursor type: [M+H]+
m/z	relative intensity
59.967	999
62.2884	225
66.0293	217
67.2812	208
86.1038	223
89.2763	234
90.8621	210
97.3821	230
101.3944	231
104.2302	232
