Mass spectrum: 2''-O-Galloylmyricitrin; LC-ESI-ITFT; MS2; CE: 0.3;  [M-H]-
Name: 2''-O-Galloylmyricitrin
Class: flavonol glycosides
Formula: C28H24O16
Exact mass: 616.1064
SMILES: c1c(O)c(O)c(O)cc1C2Oc3cc(O)cc(O)c3C(=O)C=2O[C@@H]4O[C@@H](C)[C@H](O)[C@@H](O)[C@H]4OC(=O)c5cc(O)c(O)c(O)c5
InChI: InChI=1S/C28H24O16/c1-8-19(35)23(39)26(43-27(40)10-4-15(33)21(37)16(34)5-10)28(41-8)44-25-22(38)18-12(30)6-11(29)7-17(18)42-24(25)9-2-13(31)20(36)14(32)3-9/h2-8,19,23,26,28-37,39H,1H3/t8-,19-,23+,26+,28-/m0/s1
Instrument: LTQ-Orbitrap XL hybrid mass spectrometer (Thermo Scientific)
Instrument type: LC-ESI-ITFT
Ms type: MS2
Ion mode: NEGATIVE
Ionization: ESI
Collision energy: 0.3
Column name: Acquity CSHC18
Retention time: 6.198 min
Base peak: 615.0989
Precursor m/z: 615.0989
Precursor type: [M-H]-
Precursor intensity: 5640324
m/z	relative intensity
167.0989	24
179.0002	8
197.6967	8
210.7539	4
248.6824	4
254.0479	4
287.1515	15
314.589	9
316.0272	13
317.0301	999
319.4983	8
324.2164	18
430.337	4
463.088	126
477.9403	5
534.7553	4
542.67	4
567.4001	6
