Mass spectrum: DOCOSAHEXAENOATE; LC-ESI-QFT; MS2; CE: 30eV;  [M-H]-
Name: DOCOSAHEXAENOATE
Class: NA
Formula: C22H32O2
Exact mass: 328.24023
SMILES: CC\C=C/C\C=C/C\C=C/C\C=C/C\C=C/C\C=C/CCC(O)=O
InChI: InChI=1S/C22H32O2/c1-2-3-4-5-6-7-8-9-10-11-12-13-14-15-16-17-18-19-20-21-22(23)24/h3-4,6-7,9-10,12-13,15-16,18-19H,2,5,8,11,14,17,20-21H2,1H3,(H,23,24)/b4-3-,7-6-,10-9-,13-12-,16-15-,19-18-
Instrument: Q-Exactive Orbitrap, Thermo Scientfic; Ultimate 3000 HPLC, Thermo Scientfic
Instrument type: LC-ESI-QFT
Ms type: MS2
Ion mode: NEGATIVE
Ionization: ESI
Collision energy: 30eV
Column name: Acquity CSHC18
Retention time: 13.174 min
Base peak: 327.2329
Precursor m/z: 327.2329
Precursor type: [M-H]-
Precursor intensity: 107
m/z	relative intensity
52.888	143
55.5731	150
59.0123	818
72.8197	150
73.2192	146
83.4518	160
87.1065	158
87.9263	180
99.2061	177
101.7009	145
102.9473	237
105.5444	182
108.9819	157
125.6698	166
131.4953	175
139.697	155
146.9374	266
149.2576	168
181.3143	171
193.6109	178
210.6437	189
223.5418	168
231.2136	179
272.884	186
283.2428	325
295.9551	178
299.26	324
323.3549	180
327.236	999
