Mass spectrum: 8-iso-15-keto Prostaglandin F2-beta; ESI-TOF; MS2; CE: 0.6458333;  [M+H]+
Name: 8-iso-15-keto Prostaglandin F2-beta
Class: NA
Formula: C20H32O5
Exact mass: 352.22497
SMILES: O[C@@H]1C[C@@H](O)[C@@H](C/C=C\CCCC(O)=O)[C@H]1/C=C/C(CCCCC)=O
InChI: InChI=1S/C20H32O5/c1-2-3-6-9-15(21)12-13-17-16(18(22)14-19(17)23)10-7-4-5-8-11-20(24)25/h4,7,12-13,16-19,22-23H,2-3,5-6,8-11,14H2,1H3,(H,24,25)/b7-4-,13-12+/t16-,17+,18+,19+/m0/s1
Instrument: waters xevo g2 TOF
Instrument type: ESI-TOF
Ms type: MS2
Ion mode: POSITIVE
Ionization: ESI
Collision energy: 0.6458333
Column name: Acquity CSHC18
Retention time: 3.333 min
Base peak: 353.23297
Precursor m/z: 353.23297
Precursor type: [M+H]+
m/z	relative intensity
71.0859	286
91.0546	272
97.9695	5
99.0812	561
106.0864	34
115.0548	78
117.0707	437
118.0747	34
128.0224	46
129.071	620
131.0864	408
141.0712	265
142.0786	85
143.0854	390
144.089	50
145.1018	135
151.1113	57
155.0852	240
156.0901	31
157.1027	515
159.1164	211
162.9735	5
169.1025	123
171.119	139
173.1161	54
175.1129	73
178.0824	5
181.1017	52
182.0033	54
183.1177	539
184.122	50
185.0967	472
187.0884	37
187.5897	5
191.1426	5
194.0953	5
196.0936	5
201.1281	999
202.1306	76
203.107	366
204.112	32
207.1377	72
219.1386	186
220.1418	5
221.1028	32
225.1303	47
231.0658	32
233.1519	5
236.169	5
253.1955	79
255.1744	68
271.2022	59
273.1854	66
274.187	5
275.2756	45
281.1903	131
289.211	5
299.2008	34
300.2034	45
309.0993	35
317.2102	298
318.2117	39
319.2186	5
329.1417	69
335.2218	134
336.2248	27
347.1545	406
353.2331	5
354.2352	5
