Mass spectrum: Orotidylic acid; LC-ESI-QTOF; MS2; CE: -10, -35, -60V;  [M-H]-
Name: Orotidylic acid
Class: NA
Formula: C10H13N2O11P
Exact mass: 368.0257
SMILES: C1=C(N(C(=O)NC1=O)C2C(C(C(O2)COP(=O)(O)O)O)O)C(=O)O
InChI: InChI=1S/C10H13N2O11P/c13-5-1-3(9(16)17)12(10(18)11-5)8-7(15)6(14)4(23-8)2-22-24(19,20)21/h1,4,6-8,14-15H,2H2,(H,16,17)(H,11,13,18)(H2,19,20,21)
Instrument: TripleToF 5600; Sciex
Instrument type: LC-ESI-QTOF
Ms type: MS2
Ion mode: NEGATIVE
Ionization: ESI
Collision energy: -10, -35, -60V
Column name: Acquity CSHC18
Retention time: 12.633 min
Base peak: 367.0215
Precursor m/z: 367.0215
Precursor type: [M-H]-
Precursor intensity: 115826
m/z	relative intensity
78.9595	528
111.0159	67
111.0204	67
192.9904	20
195.0492	49
211.0033	134
223.0372	37
267.0229	118
268.0435	31
280.029	74
321.0013	41
323.0304	824
324.0385	116
325.0329	22
365.0072	223
366.0058	31
367.0274	999
