Mass spectrum: 15(S)-Fluprostenol isopropyl ester; ESI-TOF; MS2; CE: 6.0000000;  [M+H]+
Name: 15(S)-Fluprostenol isopropyl ester
Class: NA
Formula: C26H35F3O6
Exact mass: 500.23857
SMILES: O[C@@H]1[C@H](C/C=C\CCCC(OC(C)C)=O)[C@@H](/C=C/[C@H](O)COC2=CC=CC(C(F)(F)F)=C2)[C@H](O)C1
InChI: InChI=1S/C26H35F3O6/c1-17(2)35-25(33)11-6-4-3-5-10-21-22(24(32)15-23(21)31)13-12-19(30)16-34-20-9-7-8-18(14-20)26(27,28)29/h3,5,7-9,12-14,17,19,21-24,30-32H,4,6,10-11,15-16H2,1-2H3/b5-3-,13-12+/t19-,21+,22+,23-,24+/m0/s1
Instrument: waters xevo g2 TOF
Instrument type: ESI-TOF
Ms type: MS2
Ion mode: POSITIVE
Ionization: ESI
Collision energy: 6.0000000
Column name: Acquity CSHC18
Retention time: 4.437 min
Base peak: 501.24657
Precursor m/z: 501.24657
Precursor type: [M+H]+
m/z	relative intensity
119.0862	18
133.1015	11
145.1019	46
147.1178	86
157.102	15
161.1329	37
171.1176	94
179.106	10
181.1014	33
183.1173	44
189.1281	466
190.131	50
197.1334	48
199.1114	52
201.1274	24
207.1365	999
208.1312	120
209.1407	8
210.0624	52
215.1435	40
216.148	8
217.1227	90
219.1031	77
219.5698	32
225.1282	280
226.1334	35
231.1741	5
241.0863	16
243.1379	652
244.1421	96
249.1377	356
250.1409	77
259.1697	46
260.1747	6
261.1494	289
262.1527	31
279.158	61
285.1848	716
286.1881	125
287.1921	13
303.1935	401
304.1996	69
321.1593	117
322.208	36
335.2218	13
447.2134	10
465.2107	5
482.1359	42
483.2359	22
499.1923	7
501.2371	21
