Mass spectrum: GALACTITOL; LC-ESI-QFT; MS2; CE: 30eV;  [M+H]+
Name: GALACTITOL
Class: NA
Formula: C6H14O6
Exact mass: 182.07904
SMILES: OC[C@H](O)[C@@H](O)[C@@H](O)[C@H](O)CO
InChI: InChI=1S/C6H14O6/c7-1-3(9)5(11)6(12)4(10)2-8/h3-12H,1-2H2/t3-,4+,5+,6-
Instrument: Q-Exactive Orbitrap, Thermo Scientfic; Ultimate 3000 HPLC, Thermo Scientfic
Instrument type: LC-ESI-QFT
Ms type: MS2
Ion mode: POSITIVE
Ionization: ESI
Collision energy: 30eV
Column name: Acquity CSHC18
Retention time: 0.562 min
Base peak: 183.0863
Precursor m/z: 183.0863
Precursor type: [M+H]+
Precursor intensity: 157
m/z	relative intensity
53.0394	7
55.0174	7
55.0187	181
55.055	54
56.943	16
57.0343	361
59.0498	5
60.5251	3
61.0292	106
65.1385	3
67.055	3
69.0342	448
70.0375	7
71.0498	93
72.9378	20
73.0272	6
73.0291	110
73.031	6
74.018	3
74.072	107
75.0447	32
76.5351	4
78.1295	4
81.0318	9
81.0342	291
83.0498	383
84.0532	7
85.0291	331
86.0324	5
87.0447	89
90.9483	21
91.0396	103
97.9694	36
99.0446	569
100.0478	5
101.0603	38
103.0395	225
105.0341	8
109.0766	62
110.0798	5
111.0446	510
112.0478	16
112.1435	3
113.9641	492
114.9484	22
114.9643	6
116.9664	5
117.0551	16
129.055	999
130.0582	27
131.9746	277
132.9591	46
133.9673	4
136.7932	3
137.9643	7
138.1027	6
141.9588	121
147.0655	74
154.9077	5
155.9751	84
156.9747	4
156.9827	4
159.9694	174
165.0762	67
177.9568	66
182.0929	71
182.9025	9
183.087	16
183.0961	18
