Mass spectrum: Melibiose; ESI-TOF; MS2; CE: 0.6458333;  [M+H]+
Name: Melibiose
Class: NA
Formula: C12H22O11
Exact mass: 342.11621
SMILES: OCC1OC(OCC2OC(O)C(O)C(O)C2O)C(O)C(O)C1O
InChI: InChI=1S/C12H22O11/c13-1-3-5(14)8(17)10(19)12(23-3)21-2-4-6(15)7(16)9(18)11(20)22-4/h3-20H,1-2H2
Instrument: waters xevo g2 TOF
Instrument type: ESI-TOF
Ms type: MS2
Ion mode: POSITIVE
Ionization: ESI
Collision energy: 0.6458333
Column name: Acquity CSHC18
Retention time: 0.552 min
Base peak: 343.12421
Precursor m/z: 343.12421
Precursor type: [M+H]+
m/z	relative intensity
91.0398	110
135.9927	3
145.0499	155
146.0532	3
163.0608	161
173.9812	3
174.9681	61
186.9699	128
203.973	123
204.0867	3
211.5542	3
216.9789	90
275.9952	34
277.0019	3
287.8915	3
325.1138	3
326.1178	3
337.0221	158
349.133	3
360.1516	3
361.1541	3
362.0982	24
365.106	999
396.0355	54
397.0392	3
456.0572	190
487.1679	3
707.2229	3
738.1504	3
739.1506	3
