Mass spectrum: Proline; LC-ESI-QTOF; MS2; CE: 30;  [M+H]+
Name: Proline
Class: NA
Formula: C5H9NO2
Exact mass: 115.06333
SMILES: C1CC(NC1)C(=O)O
InChI: InChI=1S/C5H9NO2/c7-5(8)4-2-1-3-6-4/h4,6H,1-3H2,(H,7,8)
Instrument: impact II
Instrument type: LC-ESI-QTOF
Ms type: MS2
Ion mode: POSITIVE
Ionization: ESI
Collision energy: 30
Column name: Acquity CSHC18
Retention time: 1.794 min
Base peak: 116.07060
Precursor m/z: 116.07060
Precursor type: [M+H]+
m/z	relative intensity
53.0393	4
56.0498	2
58.066	2
68.0503	20
70.0658	999
70.0759	73
70.1035	8
70.1251	15
70.1328	23
70.1446	11
70.1796	3
71.0692	32
116.0702	2
