Mass spectrum: Famotidine; ESI-TOF; MS2; CE: 0.6458333;  [M+H]+
Name: Famotidine
Class: NA
Formula: C8H15N7O2S3
Exact mass: 337.04494
SMILES: NC(=N)NC1=NC(CSCCC(=N)NS(N)(=O)=O)=CS1
InChI: InChI=1S/C8H15N7O2S3/c9-6(15-20(12,16)17)1-2-18-3-5-4-19-8(13-5)14-7(10)11/h4H,1-3H2,(H2,9,15)(H2,12,16,17)(H4,10,11,13,14)
Instrument: waters xevo g2 TOF
Instrument type: ESI-TOF
Ms type: MS2
Ion mode: POSITIVE
Ionization: ESI
Collision energy: 0.6458333
Column name: Acquity CSHC18
Retention time: 0.572 min
Base peak: 338.05294
Precursor m/z: 338.05294
Precursor type: [M+H]+
m/z	relative intensity
68.025	1
71.0284	78
72.0636	5
85.0515	9
86.0068	20
98.9617	11
102.0125	19
103.0329	12
113.0172	367
114.0236	60
115.0132	19
116.019	2
129.8809	1
138.0005	286
139.0171	29
140.0081	14
148.0054	2
149.0006	4
155.039	999
156.0197	109
157.0354	55
158.0033	4
172.0083	32
172.8632	1
173.9968	2
189.0265	966
190.028	98
191.0226	104
192.0249	6
200.0314	5
225.0267	4
239.0406	3
242.0527	13
259.0799	81
260.0816	10
261.0761	6
311.9913	3
338.0524	22
