Mass spectrum: 7,3',4'-tri-O-methylluteolin; LC-ESI-QTOF; MS2; CE: 50eV;  [M+H]+
Name: 7,3',4'-tri-O-methylluteolin
Class: Flavone
Formula: C18H16O6
Exact mass: 328.0947
SMILES: COC1=C(C=C(C=C1)C2=CC(=O)C3=C(C=C(C=C3O2)OC)O)OC
InChI: InChI=1S/C18H16O6/c1-21-11-7-12(19)18-13(20)9-15(24-17(18)8-11)10-4-5-14(22-2)16(6-10)23-3/h4-9,19H,1-3H3
Instrument: TIMS-TOF Pro, Bruker Daltonik; Elute UHPLC System, Bruker Daltonik
Instrument type: LC-ESI-QTOF
Ms type: MS2
Ion mode: POSITIVE
Ionization: ESI
Collision energy: 50eV
Column name: Acquity CSHC18
Retention time: 10.124 min
Base peak: 329.0997
Precursor m/z: 329.0997
Precursor type: [M+H]+
Precursor intensity: 1008127
m/z	relative intensity
73.701	3
96.0205	2
124.015	4
134.0665	2
147.0402	4
158.0695	2
206.295	2
218.3527	3
228.4953	3
241.0506	4
242.0567	7
246.0697	4
246.2863	2
255.5321	2
256.0726	10
267.0675	13
268.0745	15
270.0394	4
271.052	6
272.056	2
281.0106	1
283.0569	8
285.0759	22
286.0679	3
298.0466	5
299.0472	1
311.054	4
313.0439	8
313.0691	88
314.0413	4
314.0806	20
315.0346	4
316.0915	2
329.0681	23
329.1026	999
