Mass spectrum: 3-Methylhistidine; LC-ESI-ITFT; MS2; CE: 10;  [M-H]-
Name: 3-Methylhistidine
Class: Organic acids and derivatives; Carboxylic acids and derivatives; Amino acids, peptides, and analogues
Formula: C7H11N3O2
Exact mass: 169.08513
SMILES: CN1C=NC=C1C[C@H](N)C(O)=O
InChI: InChI=1S/C7H11N3O2/c1-10-4-9-3-5(10)2-6(8)7(11)12/h3-4,6H,2,8H2,1H3,(H,11,12)/t6-/m0/s1
Instrument: Thermo Scientific Q-Exactive Focus
Instrument type: LC-ESI-ITFT
Ms type: MS2
Ion mode: NEGATIVE
Ionization: ESI
Collision energy: 10
Column name: Acquity CSHC18
Retention time: 0.362 min
Base peak: 168.07785
Precursor m/z: 168.07785
Precursor type: [M-H]-
m/z	relative intensity
72.0078	86
80.4539	2
93.0445	24
107.0602	8
112.5051	2
150.0662	20
151.0502	387
168.0768	999
176.7198	2
178.7245	2
