Mass spectrum: 16-phenoxy tetranor Prostaglandin A2; ESI-TOF; MS2; CE: 0.6458333;  [M+H]+
Name: 16-phenoxy tetranor Prostaglandin A2
Class: NA
Formula: C22H26O5
Exact mass: 370.17802
SMILES: O=C1[C@H](C/C=C\CCCC(O)=O)[C@@H](/C=C/[C@@H](O)COC2=CC=CC=C2)C=C1
InChI: InChI=1S/C22H26O5/c23-18(16-27-19-8-4-3-5-9-19)14-12-17-13-15-21(24)20(17)10-6-1-2-7-11-22(25)26/h1,3-6,8-9,12-15,17-18,20,23H,2,7,10-11,16H2,(H,25,26)/b6-1-,14-12+/t17-,18+,20+/m0/s1
Instrument: waters xevo g2 TOF
Instrument type: ESI-TOF
Ms type: MS2
Ion mode: POSITIVE
Ionization: ESI
Collision energy: 0.6458333
Column name: Acquity CSHC18
Retention time: 3.414 min
Base peak: 371.18602
Precursor m/z: 371.18602
Precursor type: [M+H]+
m/z	relative intensity
81.0709	178
91.0555	699
103.0543	106
107.0486	495
115.0546	347
117.0705	485
119.05	562
123.0817	185
128.0627	381
129.0699	999
131.0505	794
133.0317	508
145.0656	667
152.0655	185
155.0863	350
157.0655	998
158.06	284
159.0807	296
165.0693	276
166.0776	770
169.1008	224
171.1201	185
178.0815	139
181.1019	418
182.0735	118
183.0789	223
190.976	120
195.117	287
197.0949	271
199.1108	308
205.0385	278
206.1086	87
206.9972	94
208.087	145
221.1001	93
223.1119	652
224.1142	164
241.1229	207
242.1265	86
245.024	460
247.0639	112
263.0488	92
297.078	101
299.1482	111
317.1005	689
335.1662	293
