Mass spectrum: sulfuretin; LC-ESI-ITFT; MS2; CE: 0.3;  [M+H]+
Name: sulfuretin
Class: flavonoids
Formula: C15H10O5
Exact mass: 270.0528
SMILES: C1=CC(=C(C=C1C=C2C(=O)C3=C(O2)C=C(C=C3)O)O)O
InChI: InChI=1S/C15H10O5/c16-9-2-3-10-13(7-9)20-14(15(10)19)6-8-1-4-11(17)12(18)5-8/h1-7,16-18H
Instrument: LTQ-Orbitrap XL hybrid mass spectrometer (Thermo Scientific)
Instrument type: LC-ESI-ITFT
Ms type: MS2
Ion mode: POSITIVE
Ionization: ESI
Collision energy: 0.3
Column name: Acquity CSHC18
Retention time: 6.994 min
Base peak: 271.0592
Precursor m/z: 271.0592
Precursor type: [M+H]+
Precursor intensity: 8361829
m/z	relative intensity
65.7166	22
71.7035	19
75.2809	21
76.4045	19
82.6105	25
83.2384	21
84.0703	22
92.2677	22
94.5189	23
98.8323	24
99.2855	36
100.9878	25
103.1588	24
104.9697	26
105.5837	26
106.4057	30
107.5396	30
110.8363	28
111.3217	25
112.5649	28
115.4738	26
115.9743	33
116.9849	27
117.1559	34
117.4261	33
119.0606	26
122.4203	27
123.2242	27
123.357	27
125.2027	27
125.5602	31
137.0226	885
137.724	41
142.8697	29
144.3089	28
145.6738	30
148.9905	35
149.024	42
150.6707	30
151.3466	30
153.8268	34
155.5444	32
157.6313	32
161.0229	132
179.5901	28
179.6025	26
181.0091	26
181.0641	124
184.6234	28
197.0595	55
201.0549	50
202.3713	28
215.0698	639
225.0539	541
229.9223	26
237.1244	27
243.0644	431
246.3788	25
253.0491	613
271.0597	999
