Mass spectrum: 4'-O-Methylquercetin; LC-ESI-QTOF; MS2; CE: 50eV;  [M-H]-
Name: 4'-O-Methylquercetin
Class: Flavonol
Formula: C16H12O7
Exact mass: 316.0583
SMILES: COC1=C(C=C(C=C1)C2=C(C(=O)C3=C(C=C(C=C3O2)O)O)O)O
InChI: InChI=1S/C16H12O7/c1-22-11-3-2-7(4-9(11)18)16-15(21)14(20)13-10(19)5-8(17)6-12(13)23-16/h2-6,17-19,21H,1H3
Instrument: TIMS-TOF Pro, Bruker Daltonik; Elute UHPLC System, Bruker Daltonik
Instrument type: LC-ESI-QTOF
Ms type: MS2
Ion mode: NEGATIVE
Ionization: ESI
Collision energy: 50eV
Column name: Acquity CSHC18
Retention time: 7.640 min
Base peak: 315.0441
Precursor m/z: 315.0441
Precursor type: [M-H]-
Precursor intensity: 29346
m/z	relative intensity
65.0016	110
80.0274	11
83.0126	56
84.0154	6
95.0136	9
107.0075	40
108.0195	105
119.0113	8
120.0197	26
124.0149	8
135.0065	19
136.016	18
137.02	8
148.0087	11
150.9988	22
152.008	19
163.0026	44
164.0107	19
179.2725	17
197.0239	8
220.7788	9
271.0235	10
279.7573	17
299.1412	11
300.0227	999
300.2986	7
300.6666	8
300.766	7
300.9437	9
301.0258	91
301.127	7
302.0279	16
315.0469	496
315.4584	6
