Mass spectrum: Adenine; LC-ESI-ITFT; MS2; CE: 20;  [M+H]+
Name: Adenine
Class: Organoheterocyclic compounds; Imidazopyrimidines; Purines and purine derivatives
Formula: C5H5N5
Exact mass: 135.05450
SMILES: NC1=C2NC=NC2=NC=N1
InChI: InChI=1S/C5H5N5/c6-4-3-5(9-1-7-3)10-2-8-4/h1-2H,(H3,6,7,8,9,10)
Instrument: Thermo Scientific Q-Exactive Focus
Instrument type: LC-ESI-ITFT
Ms type: MS2
Ion mode: POSITIVE
Ionization: ESI
Collision energy: 20
Column name: Acquity CSHC18
Retention time: 0.634 min
Base peak: 136.06177
Precursor m/z: 136.06177
Precursor type: [M+H]+
m/z	relative intensity
65.0138	7
67.0295	25
72.0283	7
92.0245	45
94.0402	128
109.051	28
112.0506	8
119.0353	542
136.0617	999
137.0456	296
