Mass spectrum: L-Lysine; ESI-TOF; MS2; CE: 0.6458333;  [M+H]+
Name: L-Lysine
Class: NA
Formula: C6H14N2O2
Exact mass: 146.10553
SMILES: NCCCCC(N)C(O)=O
InChI: InChI=1S/C6H14N2O2/c7-4-2-1-3-5(8)6(9)10/h5H,1-4,7-8H2,(H,9,10)
Instrument: waters xevo g2 TOF
Instrument type: ESI-TOF
Ms type: MS2
Ion mode: POSITIVE
Ionization: ESI
Collision energy: 0.6458333
Column name: Acquity CSHC18
Retention time: 0.470 min
Base peak: 147.11353
Precursor m/z: 147.11353
Precursor type: [M+H]+
m/z	relative intensity
84.0817	999
90.9048	26
94.9653	8
97.9692	538
101.941	38
102.1286	1
111.969	1
112.0765	1
113.0792	1
113.9644	1
113.9645	188
119.0515	6
126.9721	1
129.1031	1
130.087	129
131.0902	1
131.951	43
133.9291	1
137.9636	20
139.0086	45
139.9775	6
140.0169	12
140.9953	1
141.9593	1
143.9596	1
145.0175	28
145.9559	1
145.9897	1
147.1134	41
148.1161	1
155.979	1
156.0353	52
158.0286	6
160.9904	4
161.9707	1
163.0273	1
169.0953	1
173.8686	34
174.9554	1
182.9859	1
185.0595	8
191.0775	7
201.0327	1
224.0242	9
230.89	1
246.864	1
247.038	1
258.1688	1
258.1696	1
287.8896	1
302.1429	1
346.1304	15
347.1396	12
349.1374	1
368.1118	9
369.121	19
492.2359	1
514.2194	1
547.1656	20
