Mass spectrum: Kaempferol.Glc.Rha; LC-ESI-ITFT; MS2; CE: 30;  [M+H]+
Name: Kaempferol.Glc.Rha
Class: NA
Formula: C27H30O15
Exact mass: 594.1585
SMILES: CC1C(C(C(C(O1)OC2=CC(=C3C(=C2)OC(=C(C3=O)OC4C(C(C(C(O4)CO)O)O)O)C5=CC=C(C=C5)O)O)O)O)O
InChI: InChI=1S/C27H30O15/c1-9-17(31)20(34)22(36)26(38-9)39-12-6-13(30)16-14(7-12)40-24(10-2-4-11(29)5-3-10)25(19(16)33)42-27-23(37)21(35)18(32)15(8-28)41-27/h2-7,9,15,17-18,20-23,26-32,34-37H,8H2,1H3
Instrument: q exactive focus thermo
Instrument type: LC-ESI-ITFT
Ms type: MS2
Ion mode: POSITIVE
Ionization: ESI
Collision energy: 30
Column name: Acquity CSHC18
Retention time: 6.650 min
Base peak: 595.1657
Precursor m/z: 595.1657
Precursor type: [M+H]+
Precursor intensity: 439541800
m/z	relative intensity
103.0419	134
105.0446	149
107.0796	152
109.0194	163
115.0466	217
129.0629	343
131.0672	347
145.0567	375
147.0546	999
