Mass spectrum: 3-Methylhistidine; LC-ESI-ITFT; MS2; CE: 20;  [M-H]-
Name: 3-Methylhistidine
Class: Organic acids and derivatives; Carboxylic acids and derivatives; Amino acids, peptides, and analogues
Formula: C7H11N3O2
Exact mass: 169.08513
SMILES: CN1C=NC=C1C[C@H](N)C(O)=O
InChI: InChI=1S/C7H11N3O2/c1-10-4-9-3-5(10)2-6(8)7(11)12/h3-4,6H,2,8H2,1H3,(H,11,12)/t6-/m0/s1
Instrument: Thermo Scientific Q-Exactive Focus
Instrument type: LC-ESI-ITFT
Ms type: MS2
Ion mode: NEGATIVE
Ionization: ESI
Collision energy: 20
Column name: Acquity CSHC18
Retention time: 0.646 min
Base peak: 168.07785
Precursor m/z: 168.07785
Precursor type: [M-H]-
m/z	relative intensity
72.0078	999
93.0446	402
107.0602	53
119.9343	25
150.0664	26
151.0502	902
151.1243	24
168.0768	437
175.9192	26
185.2411	25
