Mass spectrum: NORVALINE; LC-ESI-QTOF; MS2; CE: 20;  [M-H]-
Name: NORVALINE
Class: NA
Formula: C5H11NO2
Exact mass: 117.07898
SMILES: CCC[C@@H](N)C(O)=O
InChI: InChI=1S/C5H11NO2/c1-2-3-4(6)5(7)8/h4H,2-3,6H2,1H3,(H,7,8)/t4-/m1/s1
Instrument: Agilent 6530Â Q-TOF LC/MS
Instrument type: LC-ESI-QTOF
Ms type: MS2
Ion mode: NEGATIVE
Ionization: ESI
Collision energy: 20
Column name: NA
Retention time: 0.200 min
Base peak: 116.07094
Precursor m/z: 116.07094
Precursor type: [M-H]-
Precursor intensity: 195
m/z	relative intensity
65.0131	408
83.9334	424
99.9293	600
100.2276	999
