Mass spectrum: genistein; LC-ESI-ITFT; MS2; CE: 0.3;  [M-H]-
Name: genistein
Class: isoflavones
Formula: C15H10O5
Exact mass: 270.0528
SMILES: C1=CC(=CC=C1C2=COC3=CC(=CC(=C3C2=O)O)O)O
InChI: InChI=1S/C15H10O5/c16-9-3-1-8(2-4-9)11-7-20-13-6-10(17)5-12(18)14(13)15(11)19/h1-7,16-18H
Instrument: LTQ-Orbitrap XL hybrid mass spectrometer (Thermo Scientific)
Instrument type: LC-ESI-ITFT
Ms type: MS2
Ion mode: NEGATIVE
Ionization: ESI
Collision energy: 0.3
Column name: Acquity CSHC18
Retention time: 8.500 min
Base peak: 269.0456
Precursor m/z: 269.0456
Precursor type: [M-H]-
Precursor intensity: 13795690
m/z	relative intensity
69.2181	1
77.1043	1
91.7244	1
94.0784	1
95.4369	1
119.4803	1
133.0298	10
135.008	1
136.1871	1
140.0062	1
157.0301	3
157.0664	2
159.045	5
167.0999	7
169.0663	12
180.0585	15
181.0664	45
182.0394	1
183.0454	10
187.993	1
196.0532	11
197.061	21
197.7116	2
199.0406	10
201.0561	31
204.213	1
213.056	9
224.0484	22
225.0561	44
227.0349	12
240.0434	4
241.0509	19
265.2484	2
266.4987	1
267.0147	1
267.137	4
267.7866	2
268.0347	1
268.4092	3
269.0138	1
269.0458	999
