Mass spectrum: 4-Hydroxy-7-methoxycoumarin; LC-ESI-ITFT; MS2; CE: 45eV;  [M+H]+
Name: 4-Hydroxy-7-methoxycoumarin
Class: coumarin
Formula: C10H8O4
Exact mass: 192.0423
SMILES: COC1=CC2=C(C=C1)C(=CC(=O)O2)O
InChI: InChI=1S/C10H8O4/c1-13-6-2-3-7-8(11)5-10(12)14-9(7)4-6/h2-5,11H,1H3
Instrument: LTQ Orbitrap XL, Thermo Scientfic; Dionex Ultimate 300
Instrument type: LC-ESI-ITFT
Ms type: MS2
Ion mode: POSITIVE
Ionization: ESI
Collision energy: 45eV
Column name: Alltima C18
Retention time: 16.3 min
Base peak: 193.0484
Precursor m/z: 193.0484
Precursor type: [M+H]+
m/z	relative intensity
76.9794	18
108.931	37
124.9534	18
146.9266	265
154.3502	28
160.9566	999
172.4601	34
174.974	964
186.0383	59
