Mass spectrum: Attenoside; LC-ESI-QTOF; MS2; CE: 50eV;  [M+NH4]+
Name: Attenoside
Class: Diterpene
Formula: C44H74O21
Exact mass: 938.4723
SMILES: C[C@H]1[C@@H]([C@H]([C@H]([C@@H](O1)O[C@@H]2[C@H](O[C@H]([C@@H]([C@H]2O)O)O[C@@](C)(CC/C=C(\C)/CC/C=C(\C)/CC/C=C(/C)\CO[C@H]3[C@@H]([C@H]([C@@H]([C@H](O3)CO)O)O)O[C@H]4[C@@H]([C@H]([C@@H]([C@H](O4)CO)O)O)O)C=C)CO)O)O)O
InChI: InChI=1S/C44H74O21/c1-7-44(6,65-42-37(57)34(54)38(27(19-47)62-42)63-40-35(55)31(51)28(48)24(5)59-40)16-10-15-22(3)12-8-11-21(2)13-9-14-23(4)20-58-43-39(33(53)30(50)26(18-46)61-43)64-41-36(56)32(52)29(49)25(17-45)60-41/h7,11,14-15,24-43,45-57H,1,8-10,12-13,16-20H2,2-6H3/b21-11+,22-15+,23-14-/t24-,25+,26+,27+,28-,29+,30+,31+,32-,33-,34+,35+,36+,37+,38+,39+,40-,41-,42-,43+,44+/m0/s1
Instrument: Impact II qTOF
Instrument type: LC-ESI-QTOF
Ms type: MS2
Ion mode: POSITIVE
Ionization: ESI
Collision energy: 50eV
Column name: Direct injection MS/MS
Retention time: 6.3 min
Base peak: 956.5097
Precursor m/z: 956.5097
Precursor type: [M+NH4]+
m/z	relative intensity
129.0552	207
161.1316	218
163.0603	337
163.1473	275
175.1478	189
177.163	218
189.1635	154
203.1785	123
215.1788	350
255.0863	131
271.2416	999
272.2444	191
273.0969	187
309.1176	328
