Mass spectrum: Scoparone; LC-ESI-QTOF; MS2; CE: 50eV;  [M+H]+
Name: Scoparone
Class: Coumarin
Formula: C11H10O4
Exact mass: 206.0579
SMILES: COC1=C(C=C2C(=C1)C=CC(=O)O2)OC
InChI: InChI=1S/C11H10O4/c1-13-9-5-7-3-4-11(12)15-8(7)6-10(9)14-2/h3-6H,1-2H3
Instrument: TIMS-TOF Pro, Bruker Daltonik; Elute UHPLC System, Bruker Daltonik
Instrument type: LC-ESI-QTOF
Ms type: MS2
Ion mode: POSITIVE
Ionization: ESI
Collision energy: 50eV
Column name: Acquity CSHC18
Retention time: 6.231 min
Base peak: 207.0642
Precursor m/z: 207.0642
Precursor type: [M+H]+
Precursor intensity: 891516.4
m/z	relative intensity
20.7487	3
31.1711	3
39.5993	1
41.608	5
51.0233	13
63.0224	6
65.0384	18
68.9969	6
76.0299	6
77.039	79
77.8936	4
78.0463	30
79.0545	38
89.0385	89
90.0459	30
91.0545	59
92.0199	7
95.0488	4
102.0456	8
103.6918	4
105.0339	29
106.0379	12
107.0443	77
108.057	12
109.0604	3
117.0128	1
118.0413	21
119.0485	26
121.0424	35
122.0341	3
132.0558	6
133.0294	19
134.0359	19
135.0444	46
136.0512	69
137.0542	4
143.427	3
145.0295	35
146.0363	152
147.0446	15
148.0526	158
149.0562	26
151.0668	523
152.0777	43
161.0198	4
162.0301	48
163.0374	288
164.0438	48
166.5467	2
173.0234	2
174.0308	47
175.0369	7
178.0621	27
179.0692	231
180.0727	32
191.0202	212
191.7489	4
192.0412	410
193.0452	39
197.7915	1
207.0471	999
207.4731	21
