Mass spectrum: Agmatine; LC-ESI-ITFT; MS2; CE: 100;  [M+H]+
Name: Agmatine
Class: Organic nitrogen compounds; Organonitrogen compounds; Guanidines
Formula: C5H14N4
Exact mass: 130.12185
SMILES: NCCCCNC(N)=N
InChI: InChI=1S/C5H14N4/c6-3-1-2-4-9-5(7)8/h1-4,6H2,(H4,7,8,9)
Instrument: Thermo Scientific Q-Exactive Focus
Instrument type: LC-ESI-ITFT
Ms type: MS2
Ion mode: POSITIVE
Ionization: ESI
Collision energy: 100
Column name: Acquity CSHC18
Retention time: 1.961 min
Base peak: 131.12912
Precursor m/z: 131.12912
Precursor type: [M+H]+
m/z	relative intensity
51.0737	609
55.9349	999
63.4092	575
66.5822	575
73.9151	577
74.5581	635
101.409	592
101.4948	641
111.3245	586
114.084	608
