Mass spectrum: cis-Pinan-2-ol; APCI-ITFT; MS2; CE: HCD 90;  [M-H]-
Name: cis-Pinan-2-ol
Class: NA
Formula: C10H18O
Exact mass: 154.13577
SMILES: CC1(C2CCC(C1C2)(C)O)C
InChI: InChI=1S/C10H18O/c1-9(2)7-4-5-10(3,11)8(9)6-7/h7-8,11H,4-6H2,1-3H3
Instrument: Orbitrap Elite
Instrument type: APCI-ITFT
Ms type: MS2
Ion mode: NEGATIVE
Ionization: APCI
Collision energy: HCD 90
Column name: Acquity CSHC18
Retention time: 0.066 min
Base peak: 153.12860
Precursor m/z: 153.12860
Precursor type: [M-H]-
Precursor intensity: 50613.57
m/z	relative intensity
50.7178	34
51.579	31
52.3393	36
54.113	31
69.4527	34
72.9656	32
87.3963	35
91.5823	34
103.7992	38
107.4367	35
120.0878	32
123.7955	34
137.0832	34
153.0919	56
153.1297	999
