Mass spectrum: 19-hydroxytabersonine; ESI-QTOF; MS2; CE: 30 eV;  [M+H]+
Name: 19-hydroxytabersonine
Class: NA
Formula: C21H24N2O3
Exact mass: 352.1787
SMILES: CC(C12C=CCN3CCC4(C5=CC=CC=C5NC4=C(C1)C(=O)OC)C23[H])(O)[H]
InChI: InChI=1S/C21H24N2O3/c1-13(24)20-8-5-10-23-11-9-21(19(20)23)15-6-3-4-7-16(15)22-17(21)14(12-20)18(25)26-2/h3-8,13,19,22,24H,9-12H2,1-2H3
Instrument: Synapt (HDMS 1st gen)
Instrument type: ESI-QTOF
Ms type: MS2
Ion mode: POSITIVE
Ionization: ESI
Collision energy: 30 eV
Column name: Acquity CSHC18
Retention time: 7.788 min
Base peak: 353.1874
Precursor m/z: 353.1874
Precursor type: [M+H]+
Precursor intensity: 2448.87
m/z	relative intensity
168.0805	37
228.1049	40
277.1486	43
303.1502	54
309.1635	55
321.1614	70
322.1653	114
335.179	133
336.1804	470
353.1837	999
