Mass spectrum: Phenol Red; LC-ESI-QTOF; MS2; CE: 100;  [M+H]+
Name: Phenol Red
Class: NA
Formula: C19H14O5S
Exact mass: 354.05619
SMILES: C1=CC=C2C(=C1)C(OS2(=O)=O)(C3=CC=C(C=C3)O)C4=CC=C(C=C4)O
InChI: InChI=1S/C19H14O5S/c20-15-9-5-13(6-10-15)19(14-7-11-16(21)12-8-14)17-3-1-2-4-18(17)25(22,23)24-19/h1-12,20-21H
Instrument: impact II
Instrument type: LC-ESI-QTOF
Ms type: MS2
Ion mode: POSITIVE
Ionization: ESI
Collision energy: 100
Column name: Acquity CSHC18
Retention time: 1.785 min
Base peak: 355.06360
Precursor m/z: 355.06360
Precursor type: [M+H]+
m/z	relative intensity
151.054	572
201.5724	667
214.5801	971
225.5728	999
