Mass spectrum: D-(+)-malic acid; LC-ESI-QTOF; MS2; CE: -10, -35, -60V;  [M-H]-
Name: D-(+)-malic acid
Class: NA
Formula: C4H6O5
Exact mass: 134.0215
SMILES: C(C(C(=O)O)O)C(=O)O
InChI: InChI=1S/C4H6O5/c5-2(4(8)9)1-3(6)7/h2,5H,1H2,(H,6,7)(H,8,9)
Instrument: TripleToF 5600; Sciex
Instrument type: LC-ESI-QTOF
Ms type: MS2
Ion mode: NEGATIVE
Ionization: ESI
Collision energy: -10, -35, -60V
Column name: Acquity CSHC18
Retention time: 9.845 min
Base peak: 133.0132
Precursor m/z: 133.0132
Precursor type: [M-H]-
Precursor intensity: 18194.31
m/z	relative intensity
114.9986	345
115.0031	999
133.0136	713
