Mass spectrum: Zexbrevin; LC-ESI-ITFT; MS2; CE: 50eV;  [M+H]+
Name: Zexbrevin
Class: Sesquiterpenelactone; Germacrolide
Formula: C19H22O6
Exact mass: 346.1416
SMILES: C=C(C)C(=O)O[C@@H]3C[C@@]1(C)OC(=CC1=O)[C@H](C)C[C@@H]2OC(=O)C(=C)[C@@H]23
InChI: InChI=1S/C19H22O6/c1-9(2)17(21)24-14-8-19(5)15(20)7-12(25-19)10(3)6-13-16(14)11(4)18(22)23-13/h7,10,13-14,16H,1,4,6,8H2,2-3,5H3/t10-,13+,14-,16+,19-/m1/s1
Instrument: Q Exactive Plus, ThermoFisher Scientific
Instrument type: LC-ESI-ITFT
Ms type: MS2
Ion mode: POSITIVE
Ionization: ESI
Collision energy: 50eV
Column name: Acquity CSHC18
Retention time: 6.662 min
Base peak: 347.1483
Precursor m/z: 347.1483
Precursor type: [M+H]+
Precursor intensity: 740013500
m/z	relative intensity
66.7857	27
69.0342	999
69.8387	67
93.0704	31
113.0606	40
121.0647	126
131.0855	116
145.0647	44
147.0806	34
149.0595	31
159.0814	180
159.1176	118
163.9219	27
169.1015	49
172.0874	30
173.0961	50
178.2654	28
187.0761	68
187.1116	196
193.6846	27
197.096	64
215.1073	229
