Mass spectrum: Quercetin 5,3'-dimethyl ether-1; LC-ESI-QTOF; MS2; CE: 50eV;  [M+H]+
Name: Quercetin 5,3'-dimethyl ether-1
Class: Flavonol
Formula: C17H14O7
Exact mass: 330.0740
SMILES: COC1=CC(=CC2=C1C(=O)C(=C(O2)C3=CC(=C(C=C3)O)OC)O)O
InChI: InChI=1S/C17H14O7/c1-22-11-5-8(3-4-10(11)19)17-16(21)15(20)14-12(23-2)6-9(18)7-13(14)24-17/h3-7,18-19,21H,1-2H3
Instrument: TIMS-TOF Pro, Bruker Daltonik; Elute UHPLC System, Bruker Daltonik
Instrument type: LC-ESI-QTOF
Ms type: MS2
Ion mode: POSITIVE
Ionization: ESI
Collision energy: 50eV
Column name: Acquity CSHC18
Retention time: 6.626 min
Base peak: 331.0793
Precursor m/z: 331.0793
Precursor type: [M+H]+
Precursor intensity: 83755.94
m/z	relative intensity
55.0158	3
99.3194	6
107.0443	6
121.0276	6
126.4437	6
135.0288	5
137.0217	10
166.022	8
167.0334	19
185.0582	6
189.0488	9
202.0621	1
213.0513	2
217.0485	50
218.0477	8
228.0371	5
241.0428	4
243.062	7
245.0449	28
246.0468	22
260.0609	5
270.0544	6
273.0376	36
286.5263	6
287.0556	8
300.0213	7
301.0307	37
315.992	6
316.0568	128
317.0618	20
330.9956	7
331.0302	21
331.0793	999
