Mass spectrum: Turanose; LC-ESI-ITFT; MS2; CE: 100;  [M-H]-
Name: Turanose
Class: Lipids and lipid-like molecules; Fatty Acyls; Fatty acyl glycosides
Formula: C12H22O11
Exact mass: 342.11621
SMILES: OC[C@@H](O)[C@@H](O)[C@H](O[C@H]1O[C@H](CO)[C@@H](O)[C@H](O)[C@H]1O)C(=O)CO
InChI: InChI=1S/C12H22O11/c13-1-4(16)7(18)11(5(17)2-14)23-12-10(21)9(20)8(19)6(3-15)22-12/h4,6-16,18-21H,1-3H2/t4-,6-,7-,8-,9+,10-,11-,12-/m1/s1
Instrument: Thermo Scientific Q-Exactive Focus
Instrument type: LC-ESI-ITFT
Ms type: MS2
Ion mode: NEGATIVE
Ionization: ESI
Collision energy: 100
Column name: Acquity CSHC18
Retention time: 2.588 min
Base peak: 341.10892
Precursor m/z: 341.10892
Precursor type: [M-H]-
m/z	relative intensity
55.0178	80
58.0048	107
59.0127	999
59.3538	40
71.0126	231
72.9919	188
92.5134	121
109.2675	45
211.1108	41
245.6404	40
