Mass spectrum: Dehydroepiandrosterone; LC-ESI-ITFT; MS2; CE: 10;  [M+H]+
Name: Dehydroepiandrosterone
Class: Lipids and lipid-like molecules; Steroids and steroid derivatives; Androstane steroids
Formula: C19H28O2
Exact mass: 288.20893
SMILES: [H][C@@]12CCC(=O)[C@@]1(C)CC[C@@]1([H])[C@@]2([H])CC=C2C[C@@H](O)CC[C@]12C
InChI: InChI=1S/C19H28O2/c1-18-9-7-13(20)11-12(18)3-4-14-15-5-6-17(21)19(15,2)10-8-16(14)18/h3,13-16,20H,4-11H2,1-2H3/t13-,14-,15-,16-,18-,19-/m0/s1
Instrument: Thermo Scientific Q-Exactive Focus
Instrument type: LC-ESI-ITFT
Ms type: MS2
Ion mode: POSITIVE
Ionization: ESI
Collision energy: 10
Column name: Acquity CSHC18
Retention time: 0.352 min
Base peak: 289.21622
Precursor m/z: 289.21622
Precursor type: [M+H]+
m/z	relative intensity
90.9769	121
166.0973	70
171.1166	78
197.1322	118
213.1635	298
220.9343	141
231.174	240
253.1948	980
271.2052	999
289.2157	308
