Mass spectrum: Behenic acid; LC-ESI-QTOF; MS2; CE: 100;  [M-H]-
Name: Behenic acid
Class: NA
Formula: C22H44O2
Exact mass: 340.3341
SMILES: CCCCCCCCCCCCCCCCCCCCCC(=O)O
InChI: InChI=1S/C22H44O2/c1-2-3-4-5-6-7-8-9-10-11-12-13-14-15-16-17-18-19-20-21-22(23)24/h2-21H2,1H3,(H,23,24)
Instrument: impact II
Instrument type: LC-ESI-QTOF
Ms type: MS2
Ion mode: NEGATIVE
Ionization: ESI
Collision energy: 100
Column name: Acquity CSHC18
Retention time: 1.876 min
Base peak: 339.3266
Precursor m/z: 339.3266
Precursor type: [M-H]-
m/z	relative intensity
79.9572	999
119.0504	253
