Mass spectrum: 5-HYDROXYINDOLEACETATE; LC-ESI-QFT; MS2; CE: 30eV;  [M+H]+
Name: 5-HYDROXYINDOLEACETATE
Class: NA
Formula: C10H9NO3
Exact mass: 191.05824
SMILES: OC(=O)CC1=CNC2=CC=C(O)C=C12
InChI: InChI=1S/C10H9NO3/c12-7-1-2-9-8(4-7)6(5-11-9)3-10(13)14/h1-2,4-5,11-12H,3H2,(H,13,14)
Instrument: Q-Exactive Orbitrap, Thermo Scientfic; Ultimate 3000 HPLC, Thermo Scientfic
Instrument type: LC-ESI-QFT
Ms type: MS2
Ion mode: POSITIVE
Ionization: ESI
Collision energy: 30eV
Column name: Acquity CSHC18
Retention time: 4.275 min
Base peak: 192.0655
Precursor m/z: 192.0655
Precursor type: [M+H]+
Precursor intensity: 133
m/z	relative intensity
52.4928	3
52.6068	4
53.8508	4
59.0498	6
60.957	4
70.5863	4
74.61	5
91.0546	12
118.0654	23
119.0493	23
128.6034	6
140.6868	5
147.0633	352
191.0583	7
192.0655	999
192.1385	6
193.0689	35
203.0798	5
205.2285	5
213.3434	5
