Mass spectrum: 3,4',5-Trihydroxystilbene; LC-ESI-QTOF; MS2; CE: 15.00;  [M+H]+
Name: 3,4',5-Trihydroxystilbene
Class: NA
Formula: C14H12O3
Exact mass: 228.0786
SMILES: C1=CC(=CC=C1C=CC2=CC(=CC(=C2)O)O)O
InChI: InChI=1S/C14H12O3/c15-12-5-3-10(4-6-12)1-2-11-7-13(16)9-14(17)8-11/h1-9,15-17H
Instrument: Bruker MicrOTOF-Q
Instrument type: LC-ESI-QTOF
Ms type: MS2
Ion mode: POSITIVE
Ionization: ESI
Collision energy: 15.00
Column name: Acquity CSHC18
Retention time: NA
Base peak: 229.0859
Precursor m/z: 229.0859
Precursor type: [M+H]+
m/z	relative intensity
119.0481	27
120.0552	28
121.0272	32
123.0423	33
135.043	36
136.0491	38
141.0689	38
145.0639	39
153.0697	39
155.0841	39
159.0795	41
165.0701	44
166.0738	46
173.0634	55
181.0647	59
182.0726	61
183.0807	66
184.0836	66
187.0743	73
193.0646	81
194.0693	82
199.0759	90
201.0914	100
210.0676	104
211.0757	142
212.08	196
214.0624	388
227.0706	389
228.0775	428
229.0863	581
230.0896	999
