Mass spectrum: Inosine; LC-ESI-ITFT; MS2; CE: 20;  [M-H]-
Name: Inosine
Class: Nucleosides, nucleotides, and analogues; Purine nucleosides
Formula: C10H12N4O5
Exact mass: 268.08077
SMILES: OC[C@H]1O[C@H]([C@H](O)[C@@H]1O)N1C=NC2=C1NC=NC2=O
InChI: InChI=1S/C10H12N4O5/c15-1-4-6(16)7(17)10(19-4)14-3-13-5-8(14)11-2-12-9(5)18/h2-4,6-7,10,15-17H,1H2,(H,11,12,18)/t4-,6-,7-,10-/m1/s1
Instrument: Thermo Scientific Q-Exactive Focus
Instrument type: LC-ESI-ITFT
Ms type: MS2
Ion mode: NEGATIVE
Ionization: ESI
Collision energy: 20
Column name: Acquity CSHC18
Retention time: 0.642 min
Base peak: 267.07349
Precursor m/z: 267.07349
Precursor type: [M-H]-
m/z	relative intensity
92.0242	9
108.019	4
126.0298	1
135.0301	999
177.0409	3
267.0734	106
