Mass spectrum: Ginkgolide A; LC-ESI-QFT; MS2; CE: 15,30,45 (NCE);  [M+K]+
Name: Ginkgolide A
Class: NA
Formula: C20H24O9
Exact mass: 408.1420
SMILES: CC1C(=O)OC2CC34C5CC(C(C)(C)C)C33C(O)C(=O)OC3OC4(C(=O)O5)C12O
InChI: InChI=1S/C20H24O9/c1-7-12(22)26-10-6-17-9-5-8(16(2,3)4)18(17)11(21)13(23)28-15(18)29-20(17,14(24)27-9)19(7,10)25/h7-11,15,21,25H,5-6H2,1-4H3
Instrument: QE Focus, Thermo Scientfic; UPLC I-Class, Waters
Instrument type: LC-ESI-QFT
Ms type: MS2
Ion mode: POSITIVE
Ionization: ESI
Collision energy: 15,30,45 (NCE)
Column name: Acquity CSHC18
Retention time: 2.078 min
Base peak: 447.1052
Precursor m/z: 447.1052
Precursor type: [M+K]+
Precursor intensity: 11303920
m/z	relative intensity
50.6792	3
51.0981	3
54.4511	4
57.6487	3
62.1615	3
91.7196	4
111.454	4
117.0754	4
138.8516	5
147.1136	4
447.1052	999
