Mass spectrum: H-Val-Leu-OH; LC-ESI-QTOF; MS2; CE: 15.00;  [M+H]+
Name: H-Val-Leu-OH
Class: NA
Formula: C11H22N2O3
Exact mass: 230.1630
SMILES: CC(C)CC(C(=O)O)NC(=O)C(C(C)C)N
InChI: InChI=1S/C11H22N2O3/c1-6(2)5-8(11(15)16)13-10(14)9(12)7(3)4/h6-9H,5,12H2,1-4H3,(H,13,14)(H,15,16)
Instrument: Bruker MicrOTOF-Q
Instrument type: LC-ESI-QTOF
Ms type: MS2
Ion mode: POSITIVE
Ionization: ESI
Collision energy: 15.00
Column name: Acquity CSHC18
Retention time: NA
Base peak: 231.1703
Precursor m/z: 231.1703
Precursor type: [M+H]+
m/z	relative intensity
185.16	999
209.94	174
213.15	295
231.17	378
244.87	167
