Mass spectrum: D-Xylose; LC-ESI-QTOF; MS2; CE: 15.00;  [M+Na]+
Name: D-Xylose
Class: NA
Formula: C5H10O5
Exact mass: 150.0528
SMILES: C1C(C(C(C(O1)O)O)O)O
InChI: InChI=1S/C5H10O5/c6-2-1-10-5(9)4(8)3(2)7/h2-9H,1H2
Instrument: Bruker MicrOTOF-Q
Instrument type: LC-ESI-QTOF
Ms type: MS2
Ion mode: POSITIVE
Ionization: ESI
Collision energy: 15.00
Column name: Acquity CSHC18
Retention time: NA
Base peak: 173.0420
Precursor m/z: 173.0420
Precursor type: [M+Na]+
m/z	relative intensity
104.4586	24
171.0309	24
173.0419	999
174.0673	26
324.6748	21
