Mass spectrum: TeCPy; GC-EI-FT; MS; POSITIVE; CE 40 eV
Name: TeCPy
Name: 2,3,5,6-tetrachloropyridine
Class: Non-Natural Product; Semi-volatile organic contaminants (SVOCs)
Formula: C5HCl4N
Exact mass: 216.883360
SMILES: C1=C(C(=NC(=C1Cl)Cl)Cl)Cl
InChI: InChI=1S/C5HCl4N/c6-2-1-3(7)5(9)10-4(2)8/h1H
Instrument: Trace 1310 GC, Thermo Scientific; Q Exactive Orbitrap, Thermo Scientific
Instrument type: GC-EI-FT
Ms type: MS
Ion mode: POSITIVE
Collision energy: 40 eV
Retention time: 8.071
Base peak: 216.882751
m/z	relative intensity
53.72023	8
53.969116	5
54.219482	10
54.718742	6
61.979252	7
71.976158	13
73.973213	6
74.002571	8
75.010391	82
76.956665	5
82.968315	10
83.976151	95
84.971397	25
85.97319	32
86.96846	5
93.937187	48
95.934212	29
97.93129	5
97.97924	14
99.976257	6
102.008705	5
106.944992	52
108.441154	5
108.94207	36
108.97139	130
109.974777	7
109.97921	117
110.939064	6
110.968452	42
110.982582	9
111.976273	42
117.937157	64
118.945	107
119.934235	42
120.942047	67
121.931282	7
122.939095	11
133.955887	5
143.94017	228
144.943619	12
144.948074	54
145.937241	151
146.940628	8
146.945114	39
147.934326	23
148.942184	7
152.906021	34
153.913818	9
154.903046	34
155.910873	8
156.900131	9
161.95079	47
163.947815	34
179.916733	427
179.961349	9
180.920258	22
181.911575	5
181.913773	406
181.958389	6
182.917328	20
183.91098	132
184.914398	7
185.908051	16
197.92746	84
198.930817	5
199.9245	80
201.921585	26
214.885635	806
214.890396	6
215.889175	44
216.882751	999
216.887589	10
216.888824	6
217.886215	52
218.876678	6
218.8797	489
219.88327	25
220.876968	106
221.880356	6
222.874069	7
