Mass spectrum: PFOA; LC-ESI-FT; MS2; CE 10 eV; [M-H]-
Name: PFOA
Name: 2,2,3,3,4,4,5,5,6,6,7,7,8,8,8-pentadecafluorooctanoic acid
Class: Non-Natural Product; Perfluoroalkyl carboxylic acid
Formula: C8HF15O2
Exact mass: 413.9737017
SMILES: C(=O)(C(C(C(C(C(C(C(F)(F)F)(F)F)(F)F)(F)F)(F)F)(F)F)(F)F)O
InChI: InChI=1S/C8HF15O2/c9-2(10,1(24)25)3(11,12)4(13,14)5(15,16)6(17,18)7(19,20)8(21,22)23/h(H,24,25)
Instrument: Vanquish LC, Thermo Scientific; Exploris 120 Orbitrap, Thermo Scientific
Instrument type: LC-ESI-FT
Ms type: MS2
Ion mode: NEGATIVE
Collision energy: 10 eV
Retention time: 6.04000911019643
Precursor m/z: 412.96646
Precursor type: [M-H]-
m/z	relative intensity
64.21435	60
66.49295	60
86.51953	60
135.20792	60
141.01749	70
168.98997	81
226.69444	251
352.87836	80
352.93036	239
368.97614	999
