Mass spectrum: TBAnl; GC-EI-FT; MS; POSITIVE; CE 40 eV
Name: TBAnl
Name: 2,4,6-tribromoaniline
Class: Non-Natural Product; Semi-volatile organic contaminants (SVOCs)
Formula: C6H4Br3N
Exact mass: 328.78734
SMILES: C1=C(C=C(C(=C1Br)N)Br)Br
InChI: InChI=1S/C6H4Br3N/c7-3-1-4(8)6(10)5(9)2-3/h1-2H,10H2
Instrument: Trace 1310 GC, Thermo Scientific; Q Exactive Orbitrap, Thermo Scientific
Instrument type: GC-EI-FT
Ms type: MS
Ion mode: POSITIVE
Collision energy: 40 eV
Retention time: 10.394
Base peak: 328.786621
m/z	relative intensity
61.00732	37
62.015163	66
63.022968	83
74.015152	15
82.195023	9
82.694489	9
84.475853	39
85.474815	36
87.010399	14
88.018204	82
89.026009	101
90.033836	167
91.037224	12
115.925659	19
116.933487	38
117.923607	22
118.931473	41
118.936592	17
120.934525	14
123.431099	13
123.935051	11
124.430115	23
124.934029	15
125.429085	16
129.928772	9
131.926697	10
139.925659	18
140.933411	178
141.92366	19
141.928726	10
141.936859	13
142.931396	166
143.926697	13
143.934814	10
163.39418	19
164.393173	54
165.392136	63
166.391144	17
167.944244	457
168.9478	25
168.952103	231
169.942184	434
169.955521	14
170.945724	30
170.950058	218
171.953522	13
172.841965	12
185.954941	14
187.952896	9
194.843994	13
196.84198	24
198.839905	10
220.842041	10
220.859711	52
221.849869	9
222.857651	92
224.855621	44
245.855072	10
246.862885	32
247.853012	20
247.870667	165
248.860855	65
248.874008	10
249.851074	9
249.868484	336
250.858795	34
250.871964	21
250.876389	10
251.866592	154
300.76825	11
302.766144	9
325.781067	11
326.788696	352
327.779083	31
327.792206	22
328.786621	999
329.777039	31
329.790161	58
330.77536	8
330.784576	960
331.775146	11
331.788116	59
332.782623	302
333.786072	15
