Mass spectrum: 4,4-(1,3,3,3-Trimethyl-1-propene-1,3-diyl)bisphenol; ESI-QTOF; MS2; CE: 10 eV; [M-H]-
Name: 4,4-(1,3,3,3-Trimethyl-1-propene-1,3-diyl)bisphenol
Name: TMBP
Class: Non-Natural Product; Bisphenol
Formula: C18H20O2
Exact mass: 268.14633
SMILES: CC(=CC(C)(C)C1=CC=C(C=C1)O)C2=CC=C(C=C2)O
InChI: InChI=1S/C18H20O2/c1-13(14-4-8-16(19)9-5-14)12-18(2,3)15-6-10-17(20)11-7-15/h4-12,19-20H,1-3H3
Instrument: AGILENT 6546 LC/QToF
Instrument type: LC-ESI-QTOF
Ms type: MS2
Ion mode: NEGATIVE
Ionization: ESI
Collision energy: 10 eV
Precursor m/z: 267.13904
Precursor type: [M-H]-
m/z	relative intensity
93.03455	19
252.11554	63
253.11917	13
267.13935	999
268.1426	302
268.15421	18
269.14543	36
