Mass spectrum: 1,1,1-Tris(4-hydroxyphenyl)ethane; LC-ESI-QTOF; MS2; CE: 40 eV; [M-H]-
Name: 1,1,1-Tris(4-hydroxyphenyl)ethane
Name: T4HPE
Class: Non-Natural Product
Formula: C20H18O3
Exact mass: 306.1256
SMILES: CC(C1C=CC(O)=CC=1)(C1C=CC(O)=CC=1)C1C=CC(O)=CC=1
InChI: InChI=1S/C20H18O3/c1-20(14-2-8-17(21)9-3-14,15-4-10-18(22)11-5-15)16-6-12-19(23)13-7-16/h2-13,21-23H,1H3
Instrument: AGILENT 6546 LC/QToF
Instrument type: LC-ESI-QTOF
Ms type: MS2
Ion mode: NEGATIVE
Ionization: ESI
Collision energy: 40 eV
Precursor m/z: 305.11832
Precursor type: [M-H]-
m/z	relative intensity
93.03431	192
94.0378	16
117.03447	54
168.05953	14
169.06776	11
183.08202	10
195.04507	38
196.05277	75
209.06039	46
210.06888	59
211.07645	724
211.08729	50
212.08	122
289.08699	999
289.09738	39
289.10023	18
290.09062	279
290.10185	28
291.09339	45
291.09802	10
