Mass spectrum: beta-Hexabromocyclododecane; EI-QTOF; MS; CE 70 V
Name: beta-Hexabromocyclododecane
Name: b - HCBD
Class: Non-Natural Product; Brominated flame retardant
Formula: C12H18Br6
Exact mass: 635.6508779742
SMILES: C1C[C@H]([C@H](CC[C@H]([C@H](CC[C@H]([C@@H]1Br)Br)Br)Br)Br)Br
InChI: InChI=1S/C12H18Br6/c13-7-1-2-8(14)10(16)5-6-12(18)11(17)4-3-9(7)15/h7-12H,1-6H2/t7-,8-,9-,10+,11+,12-/m1/s1
Instrument: Agilent 7200 GC/QTOF
Instrument type: GC-EI-QTOF
Ms type: MS
Ion mode: POSITIVE
Ionization: EI
Collision energy: 70 V
Retention time: 10.81
m/z	relative intensity
27.0233418366114	37
29.0394753000267	24
31.9899266098017	32
39.0236738260704	306
40.0310496281538	22
41.0393309028467	418
43.0549392633928	20
51.023616006698	71
52.0313547495231	41
53.0391478988492	373
54.0468103146408	333
55.0545467696321	134
63.0232413425696	26
64.0307202607144	29
65.0387479563252	364
66.0464790082364	155
67.0543955527321	867
68.059815911076	47
69.0702416521149	21
77.0386673711966	313
78.0461388482749	139
78.9177130594161	39
79.0542737290583	968
79.9255916497962	98
80.0607817997368	128
80.9157011815794	38
81.0699903641605	353
81.9233155294563	94
82.075246331613	21
83.0856645189378	21
91.0543979388499	843
92.0604487452564	125
93.0697329089026	352
94.0759507811312	42
95.0854724621014	111
103.054312768883	43
104.061760088222	36
105.06976427828	355
106.076132460322	92
107.085582637481	195
115.054480041802	46
116.060559737206	19
117.069841349796	286
118.0761257169	60
118.948421207115	92
119.08516287998	214
120.091423318134	41
120.946886814563	98
121.101319694621	23
128.061618023204	25
129.069577933662	112
130.076597492297	33
131.085220887864	221
131.955708728656	27
132.091350004254	39
132.964594876037	51
133.100785635747	163
134.107128334393	26
134.962010975924	51
144.964733155344	60
146.962693126027	62
156.964950373807	36
157.101298600312	607
158.107745160067	169
158.978102692847	98
159.116823127657	999
160.121731924443	196
160.978356342721	84
161.131923747143	402
161.173693908775	22
162.135815098115	50
168.964102237716	32
170.976808797803	46
172.988233252002	47
174.994842755877	36
182.980120705197	25
184.988604689002	33
186.997978727207	32
196.990847085829	26
199.001098768018	27
213.011104055258	21
237.026832597842	317
237.07261649134	25
238.03191818122	74
239.035003683782	365
239.087006142107	30
240.036112432054	64
241.041095500387	212
242.045876291666	31
243.055388768652	23
253.01655319713	20
281.110994584602	32
316.953050968566	116
318.9527981467	219
319.95402546509	33
320.955372871675	123
321.957858085336	19
322.963336861313	28
398.879192738994	43
400.874939884447	41
