Mass spectrum: N-EtFOSA; LC-ESI-FT; MS2; CE 20 eV; [M-H]-
Name: N-EtFOSA
Name: N-ethyl-1,1,2,2,3,3,4,4,5,5,6,6,7,7,8,8,8-heptadecafluorooctane-1-sulfonamide
Class: Non-Natural Product; Per- and polyfluoroalkyl substances
Formula: C10H6F17NO2S
Exact mass: 526.9847784
SMILES: CCNS(=O)(=O)C(C(C(C(C(C(C(C(F)(F)F)(F)F)(F)F)(F)F)(F)F)(F)F)(F)F)(F)F
InChI: InChI=1S/C10H6F17NO2S/c1-2-28-31(29,30)10(26,27)8(21,22)6(17,18)4(13,14)3(11,12)5(15,16)7(19,20)9(23,24)25/h28H,2H2,1H3
Instrument: Vanquish LC, Thermo Scientific; Exploris 120 Orbitrap, Thermo Scientific
Instrument type: LC-ESI-FT
Ms type: MS2
Ion mode: NEGATIVE
Collision energy: 20 eV
Retention time: 9.72065700950622
Precursor m/z: 525.97803
Precursor type: [M-H]-
m/z	relative intensity
126.00273	19
168.98924	65
218.98599	82
226.70764	15
268.98264	25
418.97314	28
525.97766	999
