Mass spectrum: bDPME; GC-EI-FT; MS; POSITIVE; CE 40 eV
Name: bDPME
Name: [benzhydryloxy(phenyl)methyl]benzene
Class: Non-Natural Product; Semi-volatile organic contaminants (SVOCs)
Formula: C26H22O
Exact mass: 350.167065321
SMILES: C1=CC=C(C=C1)C(C2=CC=CC=C2)OC(C3=CC=CC=C3)C4=CC=CC=C4
InChI: InChI=1S/C26H22O/c1-5-13-21(14-6-1)25(22-15-7-2-8-16-22)27-26(23-17-9-3-10-18-23)24-19-11-4-12-20-24/h1-20,25-26H
Instrument: Trace 1310 GC, Thermo Scientific; Q Exactive Orbitrap, Thermo Scientific
Instrument type: GC-EI-FT
Ms type: MS
Ion mode: POSITIVE
Collision energy: 40 eV
Retention time: 31.233
Base peak: 167.085648
m/z	relative intensity
65.038681	1
77.038696	54
78.042084	3
78.046555	4
89.038689	5
90.046494	1
91.054398	5
95.049347	2
102.046738	1
105.033684	167
105.03775	1
105.044884	3
106.037025	13
113.038879	1
115.054428	22
116.0578	2
126.046532	2
127.054436	2
128.062256	16
129.065689	2
129.070007	5
139.054459	9
141.070068	11
150.046524	3
151.054413	23
152.054855	2
152.062225	364
152.06485	7
152.067871	3
152.069366	3
153.06279	1
153.065643	44
153.069962	155
153.072647	3
153.075516	1
153.077301	1
154.069046	2
154.07338	18
154.077805	21
155.060532	2
155.076538	1
155.08139	2
155.085693	52
156.089081	7
163.054382	12
164.057922	2
164.062195	35
165.032211	1
165.061737	4
165.070053	646
165.072998	12
165.076416	5
165.078171	5
165.08049	2
165.083038	1
165.110229	1
166.073441	85
166.077805	118
166.081116	2
166.086197	1
167.047043	2
167.074738	1
167.077072	11
167.085648	999
167.088821	10
167.092148	7
167.093964	6
167.096405	2
167.098877	2
167.12648	2
168.080566	1
168.084824	3
168.089203	141
168.093384	422
168.096573	5
168.099976	3
168.101898	3
169.064896	1
169.092484	9
169.096802	59
170.100266	4
179.060577	6
180.06395	1
181.064972	5
182.072784	3
183.03653	1
183.070847	3
183.072891	1
183.080612	572
183.084198	7
183.088013	4
183.090164	4
183.095718	1
183.127396	1
184.083969	81
185.087463	5
193.076172	1
241.101532	1
243.117126	1
271.112122	5
272.120605	4
