Mass spectrum: 2,2-Diallylbisphenol A; LC-ESI-QTOF; MS2; CE: 40 eV; [M-H]-
Name: 2,2-Diallylbisphenol A
Name: Bisphenol_A_DABPA
Class: Non-Natural Product; Bisphenol
Formula: C21H24O2
Exact mass: 308.17763
SMILES: CC(C)(C1C=C(CC=C)C(O)=CC=1)C1C=C(CC=C)C(O)=CC=1
InChI: InChI=1S/C21H24O2/c1-5-7-15-13-17(9-11-19(15)22)21(3,4)18-10-12-20(23)16(14-18)8-6-2/h5-6,9-14,22-23H,1-2,7-8H2,3-4H3
Instrument: AGILENT 6546 LC/QToF
Instrument type: LC-ESI-QTOF
Ms type: MS2
Ion mode: NEGATIVE
Ionization: ESI
Collision energy: 40 eV
Precursor m/z: 307.17035
Precursor type: [M-H]-
m/z	relative intensity
96.96009	16
119.05004	33
131.05045	11
133.06599	105
134.06938	13
143.05013	19
149.09735	16
157.06615	58
159.08129	22
173.09715	359
173.10606	23
174.1005	54
190.09981	13
196.08905	16
203.07146	21
207.08148	37
221.09725	48
222.10514	44
223.07617	16
223.10879	10
233.06087	21
235.07679	17
235.11243	14
236.08365	13
247.07674	29
248.08433	35
249.09185	98
250.09845	15
261.09204	55
262.0997	23
263.10772	124
264.11494	79
265.11843	16
275.1076	32
276.11585	28
277.12339	999
277.1351	45
278.12669	270
278.13798	20
279.12931	25
291.13893	740
291.1508	36
292.14223	209
292.15524	15
293.14473	16
293.14828	14
307.17013	12
