Mass spectrum: DTDS; GC-EI-FT; MS; POSITIVE; CE 40 eV
Name: DTDS
Name: 1-methyl-4-[(4-methylphenyl)disulfanyl]benzene
Class: Non-Natural Product; Semi-volatile organic contaminants (SVOCs)
Formula: C14H14S2
Exact mass: 246.05369279
SMILES: CC1=CC=C(C=C1)SSC2=CC=C(C=C2)C
InChI: InChI=1S/C14H14S2/c1-11-3-7-13(8-4-11)15-16-14-9-5-12(2)6-10-14/h3-10H,1-2H3
Instrument: Trace 1310 GC, Thermo Scientific; Q Exactive Orbitrap, Thermo Scientific
Instrument type: GC-EI-FT
Ms type: MS
Ion mode: POSITIVE
Collision energy: 40 eV
Retention time: 22.208
Base peak: 246.053101
m/z	relative intensity
51.022957	3
57.987228	2
61.511688	11
61.512703	5
63.022949	6
65.038589	11
68.979393	8
69.987221	2
70.995041	3
77.038597	115
78.042007	7
78.046455	27
79.054253	210
80.057602	13
81.987206	9
82.995033	2
89.038612	16
90.046501	2
91.054268	73
92.057602	6
94.995033	5
95.049187	5
96.002892	2
97.010719	17
105.044792	7
108.002846	38
109.00621	2
109.010719	2
115.054199	2
121.010689	126
122.01445	8
122.018517	54
123.006493	5
123.021233	4
123.022163	9
123.026291	817
123.030495	4
123.031631	5
123.03315	2
124.014427	2
124.026024	6
124.029747	60
124.034088	35
125.022141	38
125.033051	2
125.037453	2
126.025528	3
128.062134	2
152.061996	7
152.982681	35
153.069855	4
153.986282	2
153.990509	35
154.978531	3
154.993866	2
154.998093	2
155.986237	3
165.069839	21
166.073151	2
166.077621	7
166.998352	2
167.085464	155
168.088821	22
171.026184	2
178.077682	3
179.085464	2
180.093414	3
181.101105	29
182.105347	6
182.108917	258
183.112289	36
184.034042	5
184.115585	3
197.041885	17
198.049698	81
199.052994	9
199.057617	6
200.045425	4
211.057541	10
212.06543	8
213.073166	119
214.076462	16
214.081223	5
215.06897	5
231.029739	3
245.045212	3
246.033813	2
246.038254	7
246.041138	5
246.053101	999
246.065018	5
246.068085	7
246.072357	2
247.056702	139
248.048981	86
248.059921	9
249.052414	11
