Mass spectrum: 4,4-Dichlorodiphenyl sulfone; GC-EI-FT; MS; POSITIVE; CE 40 eV
Name: 4,4-Dichlorodiphenyl sulfone
Name: 1-chloro-4-(4-chlorophenyl)sulfonylbenzene
Name: BCPS
Class: Non-Natural Product; Semi-volatile organic contaminants (SVOCs)
Formula: C12H8Cl2O2S
Exact mass: 285.9622061
SMILES: C1=CC(=CC=C1S(=O)(=O)C2=CC=C(C=C2)Cl)Cl
InChI: InChI=1S/C12H8Cl2O2S/c13-9-1-5-11(6-2-9)17(15,16)12-7-3-10(14)4-8-12/h1-8H
Instrument: Trace 1310 GC, Thermo Scientific; Q Exactive Orbitrap, Thermo Scientific
Instrument type: GC-EI-FT
Ms type: MS
Ion mode: POSITIVE
Collision energy: 40 eV
Retention time: 8.689
Base peak: 135.080521
m/z	relative intensity
67.054268	13
72.984001	18
74.015129	43
75.022942	188
76.026321	14
76.030785	15
77.038605	17
79.05426	20
81.069923	14
84.983978	25
86.999657	18
91.05426	43
93.011322	27
93.033546	14
93.069939	12
94.995033	29
96.002846	17
98.999619	70
100.996704	27
105.069939	18
108.002838	43
110.999619	88
111.998161	12
112.007462	11
112.996666	28
114.99456	15
115.054268	30
117.069901	18
123.997803	14
126.046448	12
126.994553	36
128.062088	19
128.991592	12
129.010193	25
129.069901	14
130.97168	283
130.991531	12
131.975098	15
132.968735	89
139.005722	231
139.05426	19
140.00914	16
141.002792	81
142.97171	24
150.046432	32
151.054245	22
152.062042	65
158.966522	999
159.969925	69
160.963623	306
161.967056	20
162.959412	15
168.056946	11
184.034103	24
186.023071	22
207.032349	27
225.042923	17
285.961731	38
287.958801	27
