Mass spectrum: PFHxDA; LC-ESI-FT; MS2; CE 10 eV; [M-H]-
Name: PFHxDA
Name: 2,2,3,3,4,4,5,5,6,6,7,7,8,8,9,9,10,10,11,11,12,12,13,13,14,14,15,15,16,16,16-hentriacontafluorohexadecanoic acid
Class: Non-Natural Product; Perfluoroalkyl carboxylic acid
Formula: C16HF31O2
Exact mass: 813.9481523
SMILES: C(=O)(C(C(C(C(C(C(C(C(C(C(C(C(C(C(C(F)(F)F)(F)F)(F)F)(F)F)(F)F)(F)F)(F)F)(F)F)(F)F)(F)F)(F)F)(F)F)(F)F)(F)F)(F)F)O
InChI: InChI=1S/C16HF31O2/c17-2(18,1(48)49)3(19,20)4(21,22)5(23,24)6(25,26)7(27,28)8(29,30)9(31,32)10(33,34)11(35,36)12(37,38)13(39,40)14(41,42)15(43,44)16(45,46)47/h(H,48,49)
Instrument: Vanquish LC, Thermo Scientific; Exploris 120 Orbitrap, Thermo Scientific
Instrument type: LC-ESI-FT
Ms type: MS2
Ion mode: NEGATIVE
Collision energy: 10 eV
Retention time: 10.9021805868785
Precursor m/z: 812.94116
Precursor type: [M-H]-
m/z	relative intensity
50.19027	116
55.75922	118
62.98856	143
104.64337	119
226.70084	999
318.98029	124
368.97781	179
369.22906	138
418.97675	215
518.97217	136
525.64569	149
