Mass spectrum: Ethane, 1,2-dichloro-; GC-EI-QTOF; MS; CE 70 V
Name: Ethane, 1,2-dichloro-
Name: Ethylene dichloride
Class: Non-Natural Product
Formula: C2H4Cl2
Exact mass: 97.969
SMILES: ClCCCl
InChI: InChI=1S/C2H4Cl2/c3-1-2-4/h1-2H2
Instrument: Agilent 7250 GC/QTOF
Instrument type: GC-EI-QTOF
Ms type: MS
Ion mode: POSITIVE
Ionization: EI
Collision energy: 70 V
Retention time: 13.38
m/z	relative intensity
26.0147662947163	23
27.0227186183068	159
28.0305958124764	10
34.9682377727491	10
46.9683318344928	13
47.9761667023592	16
48.9838903838156	303
50.9809488512821	94
59.9760721282271	30
60.9838876598061	101
61.9918037508171	999
62.9808111543095	31
62.9994204615021	123
63.9888055653258	298
64.996493519031	44
97.9681512311111	31
99.9652070035719	20
