Mass spectrum: EIBP; GC-EI-FT; MS; POSITIVE; CE 40 eV
Name: EIBP
Name: 1-ethyl-4-(4-iodophenyl)benzene
Class: Non-Natural Product; Semi-volatile organic contaminants (SVOCs)
Formula: C14H13I
Exact mass: 308.00620
SMILES: CCC1=CC=C(C=C1)C2=CC=C(C=C2)I
InChI: InChI=1S/C14H13I/c1-2-11-3-5-12(6-4-11)13-7-9-14(15)10-8-13/h3-10H,2H2,1H3
Instrument: Trace 1310 GC, Thermo Scientific; Q Exactive Orbitrap, Thermo Scientific
Instrument type: GC-EI-FT
Ms type: MS
Ion mode: POSITIVE
Collision energy: 40 eV
Retention time: 12.141
Base peak: 165.069748
m/z	relative intensity
76.030754	35
77.038567	19
81.526833	31
82.534645	40
83.038551	24
87.022926	13
89.038536	60
96.033775	78
113.038536	23
115.054184	88
126.046379	35
126.9039	41
127.91172	14
128.062027	21
139.054138	132
139.986847	65
140.057556	17
146.490753	54
150.046341	61
151.054153	76
152.06189	323
153.065338	46
153.069794	59
162.04631	17
163.054077	139
164.057587	21
164.061859	196
165.065323	32
165.069748	999
166.073135	146
166.07753	320
167.081009	45
167.085403	139
168.088821	21
176.061966	46
177.069778	17
178.07756	122
179.060303	19
179.080994	17
179.085434	59
180.093262	35
181.101074	59
182.108932	50
292.981995	950
293.985504	136
308.005371	770
309.008881	121
