Mass spectrum: Acetone; GC-EI-QTOF; MS; CE 70 V
Name: Acetone
Name: 2-propanone
Class: Non-Natural Product; Solvent
Formula: C3H6O
Exact mass: 58.042
SMILES: CC(C)=O
InChI: InChI=1S/C3H6O/c1-3(2)4/h1-2H3
Instrument: Agilent 7250 GC/QTOF
Instrument type: GC-EI-QTOF
Ms type: MS
Ion mode: POSITIVE
Ionization: EI
Collision energy: 70 V
Retention time: 7.15
m/z	relative intensity
28.0054315064055	10
31.9891471661025	47
39.0229968706399	22
42.0100346112135	53
43.0178477988479	999
44.0208219236656	19
58.0413031393323	230
