Mass spectrum: PFPeDA; LC-ESI-FT; MS2; CE 20 eV; [M-H]-
Name: PFPeDA
Name: 2,2,3,3,4,4,5,5,6,6,7,7,8,8,9,9,10,10,11,11,12,12,13,13,14,14,15,15,15-nonacosafluoropentadecanoic acid
Class: Non-Natural Product; Per- and polyfluoroalkyl substances
Formula: C15HF29O2
Exact mass: 763.9513460
SMILES: C(=O)(C(C(C(C(C(C(C(C(C(C(C(C(C(C(F)(F)F)(F)F)(F)F)(F)F)(F)F)(F)F)(F)F)(F)F)(F)F)(F)F)(F)F)(F)F)(F)F)(F)F)O
InChI: InChI=1S/C15HF29O2/c16-2(17,1(45)46)3(18,19)4(20,21)5(22,23)6(24,25)7(26,27)8(28,29)9(30,31)10(32,33)11(34,35)12(36,37)13(38,39)14(40,41)15(42,43)44/h(H,45,46)
Instrument: Vanquish LC, Thermo Scientific; Exploris 120 Orbitrap, Thermo Scientific
Instrument type: LC-ESI-FT
Ms type: MS2
Ion mode: NEGATIVE
Collision energy: 20 eV
Retention time: 10.1034839179357
Precursor m/z: 762.94482
Precursor type: [M-H]-
m/z	relative intensity
168.98920	139
218.98607	180
226.70715	31
268.98294	181
318.97992	187
368.97662	174
418.97318	160
468.97037	129
518.96729	59
718.95465	999
