Mass spectrum: MEHHP; LC-ESI-FT; MS2; CE Ramp 10-30 kV; [M-H]-
Name: MEHHP
Name: 2-(2-ethyl-5-hydroxyhexoxy)carbonylbenzoic acid
Class: Non-Natural Product; Phthalate metabolite
Formula: C16H22O5
Exact mass: 294.14672380
SMILES: CCC(CCC(C)O)COC(=O)C1=CC=CC=C1C(=O)O
InChI: InChI=1S/C16H22O5/c1-3-12(9-8-11(2)17)10-21-16(20)14-7-5-4-6-13(14)15(18)19/h4-7,11-12,17H,3,8-10H2,1-2H3,(H,18,19)
Instrument: Vanquish LC, Thermo Scientific; Exploris 120 Orbitrap, Thermo Scientific
Instrument type: LC-ESI-FT
Ms type: MS2
Ion mode: NEGATIVE
Collision energy: Ramp 10-30 kV
Retention time: 4.39025616707802
Precursor m/z: 293.13913
Precursor type: [M-H]-
m/z	relative intensity
99.08105	20
113.09701	10
121.02931	999
143.10762	64
145.12318	456
147.00848	17
226.69319	19
293.13928	952
