Mass spectrum: PFNS; LC-ESI-FT; MS2; CE 20 eV; [M-H]-
Name: PFNS
Name: 1,1,2,2,3,3,4,4,5,5,6,6,7,7,8,8,9,9,9-nonadecafluorononane-1-sulfonic acid
Class: Non-Natural Product; Per- and polyfluoroalkyl substances
Formula: C9HF19O3S
Exact mass: 549.9343001
SMILES: C(C(C(C(C(F)(F)F)(F)F)(F)F)(F)F)(C(C(C(C(F)(F)S(=O)(=O)O)(F)F)(F)F)(F)F)(F)F
InChI: InChI=1S/C9HF19O3S/c10-1(11,2(12,13)4(16,17)6(20,21)8(24,25)26)3(14,15)5(18,19)7(22,23)9(27,28)32(29,30)31/h(H,29,30,31)
Instrument: Vanquish LC, Thermo Scientific; Exploris 120 Orbitrap, Thermo Scientific
Instrument type: LC-ESI-FT
Ms type: MS2
Ion mode: NEGATIVE
Collision energy: 20 eV
Retention time: 6.63815580072403
Precursor m/z: 548.92706
Precursor type: [M-H]-
m/z	relative intensity
548.92712	999
