Mass spectrum: TCAP; GC-EI-FT; MS; POSITIVE; CE 40 eV
Name: TCAP
Name: 1-(2,3,4-trichlorophenyl)ethanone
Class: Non-Natural Product; Semi-volatile organic contaminants (SVOCs)
Formula: C8H5Cl3O
Exact mass: 221.940598
SMILES: CC(=O)C1=C(C(=C(C=C1)Cl)Cl)Cl
InChI: InChI=1S/C8H5Cl3O/c1-4(12)5-2-3-6(9)8(11)7(5)10/h2-3H,1H3
Instrument: Trace 1310 GC, Thermo Scientific; Q Exactive Orbitrap, Thermo Scientific
Instrument type: GC-EI-FT
Ms type: MS
Ion mode: POSITIVE
Collision energy: 40 eV
Retention time: 9.298
Base peak: 206.916702
m/z	relative intensity
51.728024	11
74.015182	64
83.976234	30
85.973251	12
103.458115	13
104.456635	19
107.976204	78
108.984032	121
109.973305	29
110.981117	46
117.937263	14
122.999718	26
132.960785	13
134.957825	11
142.945068	132
143.952927	76
144.942139	89
145.949982	50
146.939194	12
156.9608	11
161.963486	10
178.921799	46
180.918839	41
182.915924	14
206.916702	999
206.927887	263
207.92012	76
207.931381	19
208.913742	911
208.924942	242
209.917175	71
209.928406	18
210.910706	322
210.922104	74
211.914276	23
212.907959	33
221.940277	64
223.937332	59
225.934387	17
