Mass spectrum: BDMT; GC-EI-FT; MS; POSITIVE; CE 40 eV
Name: BDMT
Name: 2-bromo-1,5-dimethoxy-3-methylbenzene
Class: Non-Natural Product; Semi-volatile organic contaminants (SVOCs)
Formula: C9H11BrO2
Exact mass: 229.99424
SMILES: CC1=CC(=CC(=C1Br)OC)OC
InChI: InChI=1S/C9H11BrO2/c1-6-4-7(11-2)5-8(12-3)9(6)10/h4-5H,1-3H3
Instrument: Trace 1310 GC, Thermo Scientific; Q Exactive Orbitrap, Thermo Scientific
Instrument type: GC-EI-FT
Ms type: MS
Ion mode: POSITIVE
Collision energy: 40 eV
Retention time: 9.384
Base peak: 229.993637
m/z	relative intensity
57.497135	11
57.996639	10
63.022949	16
65.038597	60
77.038528	162
78.041954	12
78.046394	112
79.054222	69
80.06205	14
89.038567	30
90.046425	18
91.054176	228
92.025665	17
92.057579	19
92.06205	20
93.033463	140
93.069901	20
105.033508	45
106.041321	20
107.049141	36
108.056892	303
109.060341	27
116.933434	12
118.931427	13
119.049156	34
121.028397	38
121.064713	284
122.068161	27
122.072533	295
123.075966	30
123.08036	156
124.083824	15
135.044037	42
136.05188	66
139.075348	20
142.949081	20
144.947037	21
149.059708	17
149.070938	18
151.075317	90
156.964722	29
158.962677	27
168.964691	11
170.962646	11
171.951767	19
173.949768	21
183.951797	14
184.95961	45
185.949768	13
186.957565	42
186.975143	340
187.978592	22
188.973083	323
189.976578	23
199.946716	21
199.983078	24
200.990906	20
201.944672	19
201.981033	26
202.988846	22
214.970184	50
216.968201	50
229.993637	999
230.99707	98
231.991592	955
232.995026	92
