Mass spectrum: Bisphenol-AP-AF ; LC-ESI-QTOF; MS2; CE: 40 eV; [M-H]- 
Name: Bisphenol AP AF 
Name: BAHF (BIS TMC)
Class: Non-Natural Product; Bisphenol
Formula: C15H12F6N2O2
Exact mass: 366.0803
SMILES: C1=CC(=C(C=C1C(C2=CC(=C(C=C2)O)N)(C(F)(F)F)C(F)(F)F)N)O
InChI: InChI=1S/C15H12F6N2O2/c16-14(17,18)13(15(19,20)21,7-1-3-11(24)9(22)5-7)8-2-4-12(25)10(23)6-8/h1-6,24-25H,22-23H2
Instrument: AGILENT 6546 LC/QToF
Instrument type: LC-ESI-QTOF
Ms type: MS2
Ion mode: NEGATIVE
Ionization: ESI
Collision energy: 40 eV
Precursor m/z: 365.07303
Precursor type: [M-H]-
m/z	relative intensity
61.98941	34
68.99575	525
69.00234	57
73.02995	174
79.95795	92
82.9739	36
85.06593	60
94.98061	43
96.96025	53
101.02436	38
112.98551	47
124.05271	50
129.05576	64
134.87538	125
139.05046	55
142.06556	40
147.01406	42
148.73357	34
150.03599	36
151.04041	62
151.07601	37
151.69282	44
152.04919	35
153.05498	84
166.04273	65
173.04195	36
173.08369	65
176.03	53
180.04507	131
182.06073	47
188.93807	61
200.05369	87
205.16141	50
207.03318	41
207.0564	267
207.17501	48
208.0396	311
208.05873	116
208.1343	75
210.03469	46
211.04318	50
213.04718	37
224.0396	49
225.06854	87
226.05555	42
227.01318	109
227.06281	149
228.0478	232
230.85409	42
231.02541	50
232.05739	33
233.05033	53
235.02423	195
235.05183	145
236.05777	46
238.04857	84
239.03908	44
241.18249	55
245.00001	53
246.00583	60
247.0219	68
247.0689	74
248.02487	58
248.05366	163
248.07361	48
255.00973	41
255.05902	519
256.05812	80
259.04489	507
260.04476	239
261.05192	44
269.001	38
272.9956	49
274.05432	74
275.01748	207
275.06349	999
276.02374	915
276.03862	115
276.06766	143
277.02963	169
278.02526	109
278.06641	70
282.02782	78
294.90306	52
295.02071	41
295.06964	392
296.02891	147
296.07251	241
296.59911	41
297.02848	156
300.86278	39
301.99837	51
313.08966	55
329.11205	47
330.87322	36
365.22519	60
799.31147	36
991.45669	46
