Mass spectrum: Toluene; GC-EI-QTOF; MS; CE 70 V
Name: Toluene
Name: Methylbenzene
Class: Non-Natural Product, Solvent
Formula: C7H8
Exact mass: 92.063
SMILES: CC1C=CC=CC=1
InChI: InChI=1S/C7H8/c1-7-5-3-2-4-6-7/h2-6H,1H3
Instrument: Agilent 7250 GC/QTOF
Instrument type: GC-EI-QTOF
Ms type: MS
Ion mode: POSITIVE
Ionization: EI
Collision energy: 70 V
m/z	relative intensity
39.0229265155	41
45.0230392857165	14
50.0151014836	21
51.0229265155	37
62.0151014836	16
63.0229265155	49
65.0385765793	104
89.0385765793	36
91.0542266431	999
92.062051675	608
93.0654415966277	38
