Mass spectrum: PFDoDA; LC-ESI-FT; MS2; CE 20 eV; [M-H]-
Name: PFDoDA
Name: 2,2,3,3,4,4,5,5,6,6,7,7,8,8,9,9,10,10,11,11,12,12,12-tricosafluorododecanoic acid
Class: Non-Natural Product; Per- and polyfluoroalkyl substances
Formula: C12HF23O2
Exact mass: 613.9609270
SMILES: C(=O)(C(C(C(C(C(C(C(C(C(C(C(F)(F)F)(F)F)(F)F)(F)F)(F)F)(F)F)(F)F)(F)F)(F)F)(F)F)(F)F)O
InChI: InChI=1S/C12HF23O2/c13-2(14,1(36)37)3(15,16)4(17,18)5(19,20)6(21,22)7(23,24)8(25,26)9(27,28)10(29,30)11(31,32)12(33,34)35/h(H,36,37)
Instrument: Vanquish LC, Thermo Scientific; Exploris 120 Orbitrap, Thermo Scientific
Instrument type: LC-ESI-FT
Ms type: MS2
Ion mode: NEGATIVE
Collision energy: 20 eV
Retention time: 7.4292530036211
Precursor m/z: 612.95398
Precursor type: [M-H]-
m/z	relative intensity
168.98914	999
