Mass spectrum: DHEASA; GC-EI-FT; MS; POSITIVE; CE 40 eV
Name: DHEASA
Name: [(3S,8R,9S,10R,13S,14S)-10,13-dimethyl-17-oxo-1,2,3,4,7,8,9,11,12,14,15,16-dodecahydrocyclopenta[a]phenanthren-3-yl] acetate
Class: Non-Natural Product; Semi-volatile organic contaminants (SVOCs)
Formula: C21H30O3
Exact mass: 330.21949481
SMILES: CC(=O)O[C@H]1CC[C@@]2([C@H]3CC[C@]4([C@H]([C@@H]3CC=C2C1)CCC4=O)C)C
InChI: InChI=1S/C21H30O3/c1-13(22)24-15-8-10-20(2)14(12-15)4-5-16-17-6-7-19(23)21(17,3)11-9-18(16)20/h4,15-18H,5-12H2,1-3H3/t15-,16-,17-,18-,20-,21-/m0/s1
Instrument: Trace 1310 GC, Thermo Scientific; Q Exactive Orbitrap, Thermo Scientific
Instrument type: GC-EI-FT
Ms type: MS
Ion mode: POSITIVE
Collision energy: 40 eV
Retention time: 15.089
Base peak: 121.101135
m/z	relative intensity
67.05426	104
77.038589	157
79.054214	462
81.069908	171
91.054199	647
92.062065	101
93.06987	656
97.064835	156
105.069862	560
106.077728	110
107.08551	354
115.054237	284
117.069855	388
119.085548	307
120.093376	153
121.101135	999
122.104546	111
128.062042	314
129.069839	392
131.085526	412
133.101196	181
141.06987	218
142.077728	124
143.085495	474
145.101135	462
147.116806	235
149.096115	164
150.103928	214
155.08551	150
157.101166	280
159.116806	264
171.116791	208
181.101135	107
185.132462	124
199.111694	352
199.148102	103
207.032349	178
213.163773	163
237.163849	138
255.174469	237
270.197906	689
271.201355	149
