Mass spectrum: PFPeS; LC-ESI-FT; MS2; CE 10 eV; [M-H]-
Name: PFPeS
Name: 1,1,2,2,3,3,4,4,5,5,5-undecafluoropentane-1-sulfonic acid
Class: Non-Natural Product; Perfluoroalkyl sulfonic acid
Formula: C5HF11O3S
Exact mass: 349.94707485
SMILES: C(C(C(F)(F)F)(F)F)(C(C(F)(F)S(=O)(=O)O)(F)F)(F)F
InChI: InChI=1S/C5HF11O3S/c6-1(7,2(8,9)4(12,13)14)3(10,11)5(15,16)20(17,18)19/h(H,17,18,19)
Instrument: Vanquish LC, Thermo Scientific; Exploris 120 Orbitrap, Thermo Scientific
Instrument type: LC-ESI-FT
Ms type: MS2
Ion mode: NEGATIVE
Collision energy: 10 eV
Retention time: 5.22538650892576
Precursor m/z: 348.93961
Precursor type: [M-H]-
m/z	relative intensity
348.93945	999
