Mass spectrum: PFTrDS; LC-ESI-FT; MS2; CE 10 eV; [M-H]-
Name: PFTrDS
Name: 1,1,2,2,3,3,4,4,5,5,6,6,7,7,8,8,9,9,10,10,11,11,12,12,13,13,13-heptacosafluorotridecane-1-sulfonic acid
Class: Non-Natural Product; Perfluoroalkyl sulfonic acid
Formula: C13HF27O3S
Exact mass: 749.9215254
SMILES: C(C(C(C(C(C(C(F)(F)F)(F)F)(F)F)(F)F)(F)F)(F)F)(C(C(C(C(C(C(F)(F)S(=O)(=O)O)(F)F)(F)F)(F)F)(F)F)(F)F)(F)F
InChI: InChI=1S/C13HF27O3S/c14-1(15,2(16,17)4(20,21)6(24,25)8(28,29)10(32,33)12(36,37)38)3(18,19)5(22,23)7(26,27)9(30,31)11(34,35)13(39,40)44(41,42)43/h(H,41,42,43)
Instrument: Vanquish LC, Thermo Scientific; Exploris 120 Orbitrap, Thermo Scientific
Instrument type: LC-ESI-FT
Ms type: MS2
Ion mode: NEGATIVE
Collision energy: 10 eV
Retention time: 9.37891212565104
Precursor m/z: 748.91443
Precursor type: [M-H]-
m/z	relative intensity
748.91437	999
