Mass spectrum: PCPy; GC-EI-FT; MS; POSITIVE; CE 40 eV
Name: PCPy
Name: 2,3,4,5,6-pentachloropyridine
Class: Non-Natural Product; Semi-volatile organic contaminants (SVOCs)
Formula: C5Cl5N
Exact mass: 250.844387
SMILES: C1(=C(C(=NC(=C1Cl)Cl)Cl)Cl)Cl
InChI: InChI=1S/C5Cl5N/c6-1-2(7)4(9)11-5(10)3(1)8
Instrument: Trace 1310 GC, Thermo Scientific; Q Exactive Orbitrap, Thermo Scientific
Instrument type: GC-EI-FT
Ms type: MS
Ion mode: POSITIVE
Collision energy: 40 eV
Retention time: 9.103
Base peak: 250.843796
m/z	relative intensity
73.046837	146
77.038582	132
79.054237	160
81.069901	137
91.054214	328
93.937164	211
95.934204	129
108.971359	459
110.96843	157
115.054237	181
117.937103	446
119.934204	290
130.991501	149
143.940231	133
152.905975	230
154.903015	243
178.909027	280
180.906067	265
207.032349	161
213.877899	338
215.874969	451
217.87207	205
225.042953	145
233.88562	141
248.846786	645
250.843796	999
252.840897	635
254.838074	200
