Mass spectrum: PFUnDA; LC-ESI-FT; MS2; CE 20 eV; [M-H]-
Name: PFUnDA
Name: 2,2,3,3,4,4,5,5,6,6,7,7,8,8,9,9,10,10,11,11,11-henicosafluoroundecanoic acid
Class: Non-Natural Product; Per- and polyfluoroalkyl substances
Formula: C11HF21O2
Exact mass: 563.9641207
SMILES: C(=O)(C(C(C(C(C(C(C(C(C(C(F)(F)F)(F)F)(F)F)(F)F)(F)F)(F)F)(F)F)(F)F)(F)F)(F)F)O
InChI: InChI=1S/C11HF21O2/c12-2(13,1(33)34)3(14,15)4(16,17)5(18,19)6(20,21)7(22,23)8(24,25)9(26,27)10(28,29)11(30,31)32/h(H,33,34)
Instrument: Vanquish LC, Thermo Scientific; Exploris 120 Orbitrap, Thermo Scientific
Instrument type: LC-ESI-FT
Ms type: MS2
Ion mode: NEGATIVE
Collision energy: 20 eV
Retention time: 7.03552905846702
Precursor m/z: 562.95734
Precursor type: [M-H]-
m/z	relative intensity
59.87846	12
118.99228	97
168.98911	700
218.98592	766
226.67853	28
226.70982	125
268.98282	999
318.97977	608
368.97684	90
502.45364	11
518.96680	668
