Mass spectrum: Ethane, 1,1-dichloro-; GC-EI-QTOF; MS; CE 70 V
Name: Ethane, 1,1-dichloro-
Name: Ethylidene chloride
Class: Non-Natural Product
Formula: C2H4Cl2
Exact mass: 97.969
SMILES: CC(Cl)Cl
InChI: InChI=1S/C2H4Cl2/c1-2(3)4/h2H,1H3
Instrument: Agilent 7250 GC/QTOF
Instrument type: GC-EI-QTOF
Ms type: MS
Ion mode: POSITIVE
Ionization: EI
Collision energy: 70 V
m/z	relative intensity
28.0055851611108	311
31.9893256319028	689
39.9618863645538	62
43.9893901186194	11
59.9761291617	15
60.9839541936	52
61.9917792255	30
62.981008390405	16
62.9996042574	999
64.0030199437894	20
64.9966580727358	334
82.9449818717	96
84.9420317861579	63
86.939081749531	10
97.9684569674	13
