Mass spectrum: 4:2-FTSA; LC-ESI-FT; MS2; CE 10 eV; [M-H]-
Name: 4:2-FTSA
Name: 3,3,4,4,5,5,6,6,6-nonafluorohexane-1-sulfonic acid
Class: Non-Natural Product; Per- and polyfluoroalkyl substances
Formula: C6H5F9O3S
Exact mass: 327.98156865
SMILES: C(CS(=O)(=O)O)C(C(C(C(F)(F)F)(F)F)(F)F)(F)F
InChI: InChI=1S/C6H5F9O3S/c7-3(8,1-2-19(16,17)18)4(9,10)5(11,12)6(13,14)15/h1-2H2,(H,16,17,18)
Instrument: Vanquish LC, Thermo Scientific; Exploris 120 Orbitrap, Thermo Scientific
Instrument type: LC-ESI-FT
Ms type: MS2
Ion mode: NEGATIVE
Collision energy: 10 eV
Retention time: 5.16744273366928
Precursor m/z: 326.97482
Precursor type: [M-H]-
m/z	relative intensity
306.96732	14
326.97418	999
