Mass spectrum: 1-Propene, 1,1-dichloro-; GC-EI-QTOF; MS; CE 70 V
Name: 1-Propene, 1,1-dichloro-
Name: 1,1-Dichloropropylene
Class: Non-Natural Product
Formula: C3H4Cl2
Exact mass: 109.969
SMILES: CC=C(Cl)Cl
InChI: InChI=1S/C3H4Cl2/c1-2-3(4)5/h2H,1H3
Instrument: Agilent 7250 GC/QTOF
Instrument type: GC-EI-QTOF
Ms type: MS
Ion mode: POSITIVE
Ionization: EI
Collision energy: 70 V
Retention time: 11.31
m/z	relative intensity
31.0176730696938	14
35.9994799360292	10
37.0073172670534	71
38.0151597252787	90
39.0230096292578	574
40.0264299749881	17
45.0335923171128	34
46.968338999764	69
47.9762176854543	27
48.9651960677414	20
48.9840790322145	548
50.9810964888343	177
59.0128344796783	17
59.9761148183438	19
71.9759937598029	23
72.9840652489002	86
73.9916152297859	29
74.9812971754394	29
74.9998306196358	999
75.9888568029845	11
76.0031531661245	27
76.9967633896345	306
80.91551523678	10
81.9369518593575	18
82.9450686591523	61
83.9339552174767	11
84.9423488397793	37
90.9171754755849	11
92.933246039294	28
94.9311509875461	23
108.96057579683	54
109.968610295006	280
110.957504013581	31
111.96560620007	172
113.962323679074	23
127.901777915792	68
129.89973004446	83
131.897084307781	19
