Mass spectrum: Cuminal; GC-EI-FT; MS; POSITIVE; CE 40 eV
Name: Cuminal
Name: 4-propan-2-ylbenzaldehyde
Class: Non-Natural Product; Semi-volatile organic contaminants (SVOCs)
Formula: C10H12O
Exact mass: 148.088815002
SMILES: CC(C)C1=CC=C(C=C1)C=O
InChI: InChI=1S/C10H12O/c1-8(2)10-5-3-9(7-11)4-6-10/h3-8H,1-2H3
Instrument: Trace 1310 GC, Thermo Scientific; Q Exactive Orbitrap, Thermo Scientific
Instrument type: GC-EI-FT
Ms type: MS
Ion mode: POSITIVE
Collision energy: 40 eV
Retention time: 7.268
Base peak: 133.064774
m/z	relative intensity
51.022934	8
55.017872	8
63.022953	8
65.038605	17
75.02298	12
76.030777	17
77.038544	229
78.041969	21
78.046425	61
79.054207	228
80.057602	16
89.038582	26
90.046432	9
91.054207	307
92.057594	26
95.049156	12
102.046417	38
103.054176	255
104.057587	24
104.062042	38
105.033524	10
105.044754	17
105.069893	773
106.073235	74
115.054192	126
116.057594	11
117.069878	33
119.049187	10
119.085526	544
120.088898	61
120.093369	58
129.069885	9
131.049164	53
131.060394	8
132.057022	13
133.061768	9
133.064774	999
134.068115	104
145.064804	13
147.080353	145
147.091675	11
148.083878	15
148.088165	394
149.091629	47
