Mass spectrum: DICHLOROBROMOMETHANE; GC-EI-QTOF; MS; CE 70 V
Name: DICHLOROBROMOMETHANE
Name: Bromodichloromethane
Class: Non-Natural Product
Formula: CHBrCl2
Exact mass: 161.863867492
SMILES: ClC(Cl)Br
InChI: InChI=1S/CHBrCl2/c2-1(3)4/h1H
Instrument: Agilent 7250 GC/QTOF
Instrument type: GC-EI-QTOF
Ms type: MS
Ion mode: POSITIVE
Ionization: EI
Collision energy: 70 V
m/z	relative intensity
34.9683041298	10
46.9683041298	113
47.9761291617	78
48.9653546	37
49.9731791006157	24
78.9177893198	35
80.915743	34
81.9371568398	15
82.9449818717	999
84.9420317861579	648
86.939081749531	90
90.9177893198	19
92.9154985966162	19
126.8944670617	72
128.892196624325	89
130.88947011555	20
