Mass spectrum: PFPrS; LC-ESI-FT; MS2; CE 20 eV; [M-H]-
Name: PFPrS
Name: 1,1,2,2,3,3,3-heptafluoropropane-1-sulfonic acid
Class: Non-Natural Product; Short-chained per- and polyfluoroalkyl substances (PFAS)
Formula: C3HF7O3S
Exact mass: 249.95346220
SMILES: C(C(F)(F)F)(C(F)(F)S(=O)(=O)O)(F)F
InChI: InChI=1S/C3HF7O3S/c4-1(5,2(6,7)8)3(9,10)14(11,12)13/h(H,11,12,13)
Instrument: Vanquish LC, Thermo Scientific; Exploris 120 Orbitrap, Thermo Scientific
Instrument type: LC-ESI-FT
Ms type: MS2
Ion mode: NEGATIVE
Collision energy: 20 eV
Retention time: 7.08618755005201
Precursor m/z: 248.94580
Precursor type: [M-H]-
m/z	relative intensity
68.99536	6
71.23597	1
79.95715	432
82.96069	32
98.95548	132
101.11842	1
118.10658	2
118.99224	117
130.32379	2
132.47986	1
161.32741	1
168.98895	48
184.98535	2
248.94580	999
249.91570	1
