Mass spectrum: PFOcDA; LC-ESI-FT; MS2; CE 10 eV; [M-H]-
Name: PFOcDA
Name: 2,2,3,3,4,4,5,5,6,6,7,7,8,8,9,9,10,10,11,11,12,12,13,13,14,14,15,15,16,16,17,17,18,18,18-pentatriacontafluorooctadecanoic acid
Class: Non-Natural Product; Perfluoroalkyl carboxylic acid
Formula: C18HF35O2
Exact mass: 913.9417649
SMILES: C(=O)(C(C(C(C(C(C(C(C(C(C(C(C(C(C(C(C(C(F)(F)F)(F)F)(F)F)(F)F)(F)F)(F)F)(F)F)(F)F)(F)F)(F)F)(F)F)(F)F)(F)F)(F)F)(F)F)(F)F)(F)F)O
InChI: InChI=1S/C18HF35O2/c19-2(20,1(54)55)3(21,22)4(23,24)5(25,26)6(27,28)7(29,30)8(31,32)9(33,34)10(35,36)11(37,38)12(39,40)13(41,42)14(43,44)15(45,46)16(47,48)17(49,50)18(51,52)53/h(H,54,55)
Instrument: Vanquish LC, Thermo Scientific; Exploris 120 Orbitrap, Thermo Scientific
Instrument type: LC-ESI-FT
Ms type: MS2
Ion mode: NEGATIVE
Collision energy: 10 eV
Retention time: 12.3205669309934
Precursor m/z: 912.93445
Precursor type: [M-H]-
m/z	relative intensity
50.38937	221
55.03724	236
60.58478	221
62.98850	320
65.60116	236
84.96144	259
116.72157	201
116.79657	243
117.07580	252
174.87047	224
226.68848	999
226.71861	497
468.62756	242
