Mass spectrum: PFNA; LC-ESI-FT; MS2; CE 20 eV; [M-H]-
Name: PFNA
Name: 2,2,3,3,4,4,5,5,6,6,7,7,8,8,9,9,9-heptadecafluorononanoic acid
Class: Non-Natural Product; Per- and polyfluoroalkyl substances
Formula: C9HF17O2
Exact mass: 463.9705080
SMILES: C(=O)(C(C(C(C(C(C(C(C(F)(F)F)(F)F)(F)F)(F)F)(F)F)(F)F)(F)F)(F)F)O
InChI: InChI=1S/C9HF17O2/c10-2(11,1(27)28)3(12,13)4(14,15)5(16,17)6(18,19)7(20,21)8(22,23)9(24,25)26/h(H,27,28)
Instrument: Vanquish LC, Thermo Scientific; Exploris 120 Orbitrap, Thermo Scientific
Instrument type: LC-ESI-FT
Ms type: MS2
Ion mode: NEGATIVE
Collision energy: 20 eV
Retention time: 6.35689279598395
Precursor m/z: 462.96344
Precursor type: [M-H]-
m/z	relative intensity
118.99251	66
168.98918	999
218.98608	793
226.69501	28
268.98309	169
418.97269	253
