Mass spectrum: 2,2-DIHYDROXY-4-METHOXY-BENZOPHENONE; LC-ESI-QTOF; MS2; CE: 10 eV; [M-H]-
Name: 2,2'-DIHYDROXY-4-METHOXY-BENZOPHENONE
Name: Dioxybenzone
Class: Non-Natural Product; Bisphenol
Formula: C14H12O4
Exact mass: 244.073558864
SMILES: COC1=CC(O)=C(C=C1)C(=O)C1=CC=CC=C1O
InChI: InChI=1S/C14H12O4/c1-18-9-6-7-11(13(16)8-9)14(17)10-4-2-3-5-12(10)15/h2-8,15-16H,1H3
Instrument: AGILENT 6546 LC/QToF
Instrument type: LC-ESI-QTOF
Ms type: MS2
Ion mode: NEGATIVE
Ionization: ESI
Collision energy: 10 eV
Precursor m/z: 243.06628
Precursor type: [M-H]-
m/z	relative intensity
93.03456	769
94.03781	62
108.02157	47
123.04522	768
124.04857	79
184.05302	66
185.05616	12
195.04509	59
196.04826	11
197.06059	34
199.07646	199
199.08636	10
200.0797	43
211.03999	49
225.05562	69
226.05893	12
243.06637	999
244.0696	233
244.08039	14
245.07194	29
