Mass spectrum: bEHTP; GC-EI-FT; MS; POSITIVE; CE 40 eV
Name: bEHTP
Name: bis(2-ethylhexyl) benzene-1,4-dicarboxylate
Class: Non-Natural Product; Semi-volatile organic contaminants (SVOCs)
Formula: C24H38O4
Exact mass: 390.27700969
SMILES: CCCCC(CC)COC(=O)C1=CC=C(C=C1)C(=O)OCC(CC)CCCC
InChI: InChI=1S/C24H38O4/c1-5-9-11-19(7-3)17-27-23(25)21-13-15-22(16-14-21)24(26)28-18-20(8-4)12-10-6-2/h13-16,19-20H,5-12,17-18H2,1-4H3
Instrument: Trace 1310 GC, Thermo Scientific; Q Exactive Orbitrap, Thermo Scientific
Instrument type: GC-EI-FT
Ms type: MS
Ion mode: POSITIVE
Collision energy: 40 eV
Retention time: 32.502
Base peak: 149.023468
m/z	relative intensity
53.038692	5
55.05431	189
56.057659	8
56.062122	56
57.065483	3
57.069962	98
58.073341	5
65.038643	144
65.28553	3
66.042053	9
67.054314	56
68.057686	4
68.062172	6
69.069969	91
70.073471	5
70.077805	340
70.080063	2
71.081177	20
71.085625	124
72.088974	7
75.023033	4
76.030861	23
77.038666	13
79.054329	67
80.057693	4
81.070007	5
82.077812	74
83.081207	5
83.082664	2
83.085617	343
83.087944	2
84.089035	22
84.093468	202
85.096825	14
91.054375	5
93.033653	16
95.08567	3
97.101341	22
103.01799	11
104.025787	122
105.029221	9
105.033646	28
106.03698	2
112.124786	45
113.128181	4
113.132568	6
117.069969	2
118.041336	4
121.028549	58
121.039764	12
122.032043	4
122.036385	54
123.0401	3
123.044182	18
131.049393	3
132.020721	14
133.02858	2
135.04422	8
136.052124	2
139.039093	21
140.042587	2
147.080475	5
149.016296	6
149.017868	4
149.023468	999
149.030731	5
149.034576	263
149.05719	2
150.026825	82
150.031219	11
150.03804	20
151.02739	4
151.039185	2
162.03125	3
163.039032	5
165.018341	4
167.025513	4
167.033966	653
167.042252	4
167.044861	2
168.037384	57
168.041672	3
169.037643	4
179.033966	11
180.041611	3
261.132446	2
261.148804	306
261.165009	2
262.152161	51
263.154999	4
279.159332	56
280.162659	9
