Mass spectrum: TCCPD; GC-EI-FT; MS; POSITIVE; CE 40 eV
Name: TCCPD
Name: 1,2,3,4-tetrachlorocyclopenta-1,3-diene
Class: Non-Natural Product; Semi-volatile organic contaminants (SVOCs)
Formula: C5H2Cl4
Exact mass: 203.888111
SMILES: C1C(=C(C(=C1Cl)Cl)Cl)Cl
InChI: InChI=1S/C5H2Cl4/c6-2-1-3(7)5(9)4(2)8/h1H2
Instrument: Trace 1310 GC, Thermo Scientific; Q Exactive Orbitrap, Thermo Scientific
Instrument type: GC-EI-FT
Ms type: MS
Ion mode: POSITIVE
Collision energy: 40 eV
Retention time: 6.985
Base peak: 166.921616
m/z	relative intensity
50.970692	3
61.007305	20
62.015152	17
64.968346	11
65.966896	8
70.968353	9
71.976166	9
72.965408	4
72.984001	16
73.973198	4
74.981056	6
82.944984	42
82.956665	5
83.460609	8
83.955223	4
84.459122	12
84.942055	28
85.457634	4
86.939117	5
93.937202	3
94.968338	13
95.976135	47
96.965401	4
96.983986	51
97.973221	17
98.981041	16
105.937202	17
106.944954	113
107.934235	15
107.948372	4
108.942047	86
110.939125	15
116.906044	8
117.937187	4
118.903137	7
129.937225	10
130.945038	52
131.93425	5
131.94838	3
132.942078	33
132.960678	25
134.939133	6
134.957718	16
140.906036	29
142.903107	27
144.900162	10
164.906082	8
166.903046	8
166.906754	3
166.916138	4
166.91748	6
166.918228	3
166.921616	999
166.925903	4
167.925003	53
167.929459	6
168.913071	4
168.914429	6
168.918655	963
169.922058	53
169.926514	9
170.915649	311
171.919128	18
172.912842	34
200.882721	15
201.890366	218
202.879745	19
202.893875	12
203.887466	277
204.876816	11
204.890961	16
205.884537	137
206.888	7
207.881699	28
