Mass spectrum: PFPrA; LC-ESI-FT; MS2; CE 20 eV; [M-H]-
Name: PFPrA
Name: 2,2,3,3,3-pentafluoropropanoic acid
Class: Non-Natural Product; Short-chained per- and polyfluoroalkyl substances (PFAS)
Formula: C3HF5O2
Exact mass: 163.98967008
SMILES: C(=O)(C(C(F)(F)F)(F)F)O
InChI: InChI=1S/C3HF5O2/c4-2(5,1(9)10)3(6,7)8/h(H,9,10)
Instrument: Vanquish LC, Thermo Scientific; Exploris 120 Orbitrap, Thermo Scientific
Instrument type: LC-ESI-FT
Ms type: MS2
Ion mode: NEGATIVE
Collision energy: 20 eV
Retention time: 9.85037786625226
Precursor m/z: 162.98236
Precursor type: [M-H]-
m/z	relative intensity
58.31955	20
68.99565	37
104.72996	20
118.99225	999
121.07236	20
148.31932	20
