Mass spectrum: BPon; GC-EI-FT; MS; POSITIVE; CE 40 eV
Name: BPon
Name: pentacyclo[13.3.1.05,18.08,17.011,16]nonadeca-1,3,5(18),6,8(17),9,11(16),12,14-nonaen-19-one
Class: Non-Natural Product; Semi-volatile organic contaminants (SVOCs)
Formula: C19H10O
Exact mass: 254.073164938
SMILES: C1=CC2=C3C(=C1)C(=O)C4=CC=CC5=C4C3=C(C=C2)C=C5
InChI: InChI=1S/C19H10O/c20-19-14-5-1-3-11-7-9-13-10-8-12-4-2-6-15(19)17(12)18(13)16(11)14/h1-10H
Instrument: Trace 1310 GC, Thermo Scientific; Q Exactive Orbitrap, Thermo Scientific
Instrument type: GC-EI-FT
Ms type: MS
Ion mode: POSITIVE
Collision energy: 40 eV
Retention time: 16.502
Base peak: 254.072708
m/z	relative intensity
73.046875	46
111.022987	61
112.030754	185
112.532478	43
113.038567	362
113.540337	75
126.537819	47
127.036102	49
133.013641	54
191.001114	66
198.046494	54
207.032349	266
209.011703	55
222.046509	123
223.054337	125
224.062027	560
225.04303	125
225.065506	102
225.069931	257
226.077682	699
227.081177	126
254.072708	999
255.076172	206
