Mass spectrum: DICHLOROMETHANE; GC-EI-QTOF; MS; CE 70 V
Name: DICHLOROMETHANE
Name: Methylene chloride
Class: Non-Natural Product; Solvent
Formula: CH2Cl2
Exact mass: 83.953355424
SMILES: ClCCl
InChI: InChI=1S/CH2Cl2/c2-1-3/h1H2
Instrument: Agilent 7250 GC/QTOF
Instrument type: GC-EI-QTOF
Ms type: MS
Ion mode: POSITIVE
Ionization: EI
Collision energy: 70 V
m/z	relative intensity
34.9683041298	19
40.9683041298	15
41.9668290748	10
46.9683041298	137
47.9761291617	61
48.9653546	45
48.9839541936	999
49.9731796808157	19
49.9873698799894	11
50.981004182072	306
82.9449818717	21
83.9528069036	771
84.9420323663579	14
85.9498568428362	487
87.9469068805425	71
