Mass spectrum: 4-Dodecylphenol; LC-ESI-QTOF; MS2; CE: 10 eV; [M-H]-
Name: 4-Dodecylphenol
Name: p-Dodecylphenol
Class: Non-Natural Product
Formula: C18H30O
Exact mass: 262.22967
SMILES: CCCCCCCCCCCCC1=CC=C(C=C1)O
InChI: InChI=1S/C18H30O/c1-2-3-4-5-6-7-8-9-10-11-12-17-13-15-18(19)16-14-17/h13-16,19H,2-12H2,1H3
Instrument: AGILENT 6546 LC/QToF
Instrument type: LC-ESI-QTOF
Ms type: MS2
Ion mode: NEGATIVE
Ionization: ESI
Collision energy: 10 eV
Precursor m/z: 261.22238
Precursor type: [M-H]-
m/z	relative intensity
205.1589	19
261.15054	10
261.22236	999
261.23386	57
261.25921	11
262.22572	289
262.23617	13
263.22826	34
265.14758	96
