Mass spectrum: OCCP; GC-EI-FT; MS; POSITIVE; CE 40 eV
Name: OCCP
Name: 1,2,3,3,4,4,5,5-octachlorocyclopentene
Class: Non-Natural Product; Semi-volatile organic contaminants (SVOCs)
Formula: C5Cl8
Exact mass: 343.744921
SMILES: C1(=C(C(C(C1(Cl)Cl)(Cl)Cl)(Cl)Cl)Cl)Cl
InChI: InChI=1S/C5Cl8/c6-1-2(7)4(10,11)5(12,13)3(1,8)9
Instrument: Trace 1310 GC, Thermo Scientific; Q Exactive Orbitrap, Thermo Scientific
Instrument type: GC-EI-FT
Ms type: MS
Ion mode: POSITIVE
Collision energy: 40 eV
Retention time: 10.02
Base peak: 236.840805
m/z	relative intensity
58.709679	8
59.208923	11
59.708214	8
59.999523	12
61.007332	16
64.968376	27
65.966911	13
70.968399	34
72.965439	16
76.693108	8
76.956703	14
77.19236	6
77.955254	14
81.937233	16
82.452797	9
82.945045	15
82.968361	14
83.451347	7
83.934288	14
84.942085	11
93.937248	39
94.968338	323
95.934273	24
95.971725	18
95.976189	40
96.965446	106
96.984055	8
97.973282	13
99.937233	22
100.935791	26
101.43969	12
101.934296	15
102.438187	6
105.937241	134
106.945068	32
107.934273	117
108.942146	25
109.931358	23
116.906044	338
117.421631	200
117.90947	6
117.92334	10
117.937225	107
118.420174	334
118.903122	325
118.921921	11
119.418716	228
119.920425	10
119.934303	66
120.417259	83
120.9002	94
121.415787	14
121.931366	8
122.897247	11
125.923004	9
126.921585	12
127.920113	7
129.93721	689
130.940613	36
130.945099	54
131.93425	489
132.937683	26
132.942139	31
132.960754	7
133.931366	81
134.906113	28
135.904663	53
136.903168	40
137.901718	21
140.906006	628
141.909485	21
142.903076	597
143.90654	18
144.900177	200
146.897232	24
152.906097	27
153.389023	20
154.387573	17
154.903122	25
155.386093	7
156.900177	7
163.874939	8
164.906021	524
165.872009	13
165.90947	25
166.903061	519
166.921753	84
167.906494	27
168.900177	164
168.918793	80
169.903595	7
170.897247	17
170.915848	29
187.874969	22
189.872009	26
191.869049	11
199.874985	9
200.882751	182
201.87204	10
201.8862	8
201.890549	15
202.879791	238
203.883286	10
203.887665	17
204.876923	123
205.884644	8
206.873947	25
224.840866	9
234.843781	619
235.847198	35
235.851669	19
236.840805	999
237.844238	57
237.848663	26
238.83786	637
239.841309	30
239.845718	18
240.835068	190
241.838501	11
242.832214	30
252.83609	9
269.812927	244
270.816254	11
271.809875	482
272.813385	23
273.806976	393
274.810333	17
275.803955	182
276.807373	10
277.801025	40
304.781586	306
305.785004	15
306.778473	680
307.782043	39
308.775574	605
309.779114	31
310.772766	326
311.776154	18
312.769836	109
314.766937	21
341.747437	12
343.744324	8
