Mass spectrum: oNA; GC-EI-FT; MS; POSITIVE; CE 40 eV
Name: oNA
Name: 1-methoxy-2-nitrobenzene
Class: Non-Natural Product; Semi-volatile organic contaminants (SVOCs)
Formula: C7H7NO3
Exact mass: 153.042593085
SMILES: COC1=CC=CC=C1[N+](=O)[O-]
InChI: InChI=1S/C7H7NO3/c1-11-7-5-3-2-4-6(7)8(9)10/h2-5H,1H3
Instrument: Trace 1310 GC, Thermo Scientific; Q Exactive Orbitrap, Thermo Scientific
Instrument type: GC-EI-FT
Ms type: MS
Ion mode: POSITIVE
Collision energy: 40 eV
Retention time: 7.978
Base peak: 106.028725
m/z	relative intensity
50.015114	7
51.022949	32
52.026314	5
52.030781	16
53.002235	7
57.069908	7
61.007309	4
61.028427	4
62.015144	14
63.022926	116
64.026329	6
64.030785	90
65.034134	5
65.038582	120
66.041985	8
66.046463	4
67.054245	9
68.049522	7
74.015121	26
75.022964	19
76.018204	5
76.030777	33
77.037247	4
77.038589	438
78.033844	334
78.041962	35
78.04644	12
79.037193	24
79.041656	50
79.05423	6
80.025673	12
80.049469	51
81.033516	5
85.064796	13
87.044067	51
89.059715	4
92.025635	409
92.036911	10
93.029053	32
93.033524	25
94.02877	6
95.036522	150
95.049133	65
96.039917	10
96.044365	7
96.052498	5
101.059708	5
105.033524	7
105.044739	29
106.025993	5
106.028725	999
106.030396	6
106.030777	4
107.032082	74
108.044373	34
120.044411	10
121.03965	19
123.028191	4
123.028702	6
123.031425	882
123.067863	23
124.034851	63
124.03933	33
125.035774	5
136.039337	10
137.047134	7
153.041885	368
154.04538	30
