Mass spectrum: Triallyl cyanurate; GC-EI-FT; MS; POSITIVE; CE 40 eV
Name: Triallyl cyanurate
Name: 2,4,6-tris(prop-2-enoxy)-1,3,5-triazine
Name: TAC
Class: Non-Natural Product; Semi-volatile organic contaminants (SVOCs)
Formula: C12H15N3O3
Exact mass: 249.11134135
SMILES: C=CCOC1=NC(=NC(=N1)OCC=C)OCC=C
InChI: InChI=1S/C12H15N3O3/c1-4-7-16-10-13-11(17-8-5-2)15-12(14-10)18-9-6-3/h4-6H,1-3,7-9H2
Instrument: Trace 1310 GC, Thermo Scientific; Q Exactive Orbitrap, Thermo Scientific
Instrument type: GC-EI-FT
Ms type: MS
Ion mode: POSITIVE
Collision energy: 40 eV
Retention time: 9.545
Base peak: 82.028755
m/z	relative intensity
54.033852	165
55.041706	34
56.013126	56
56.049515	31
65.03862	33
67.041695	29
67.054268	85
68.049545	37
68.994713	40
69.008377	112
69.069931	40
69.992386	343
73.04686	50
77.038605	60
78.046455	40
79.054237	379
80.0495	65
80.062073	92
81.044777	32
81.069908	148
82.028755	999
82.06517	41
83.024017	57
83.032127	46
83.036568	217
84.03186	70
84.044426	146
87.018959	77
89.038605	28
91.054253	210
92.062088	33
93.069939	79
94.065186	74
95.085571	56
96.080803	53
97.039703	46
99.018951	39
103.054268	31
105.044785	39
105.069931	102
107.085571	54
108.031853	29
108.044426	29
109.03968	234
109.076096	31
109.101242	40
110.0839	41
111.018944	105
111.055336	40
112.026764	65
115.054276	126
117.069916	82
119.085594	74
121.101227	39
122.060089	35
123.055328	53
124.026794	95
124.075768	37
125.034576	450
125.071014	37
127.05024	132
128.062088	89
129.069916	68
130.024796	50
130.991531	53
131.085602	52
133.101242	32
137.070999	100
140.058075	30
141.069901	55
142.02478	35
143.085571	41
145.101212	33
149.044922	30
151.024155	30
151.050217	100
152.045471	79
152.062073	34
153.069885	30
165.065872	64
165.069885	39
168.040375	32
170.056015	44
180.076736	39
192.076706	53
193.084564	29
207.032349	52
208.071625	235
209.011627	35
225.042923	86
234.087372	32
