Mass spectrum: BCPP; LC-ESI-FT; MS2; CE 30% (nominal); [M-H]-
Name: BCPP
Name: bis(1-chloropropan-2-yl) hydrogen phosphate
Class: Non-Natural Product; OPFR metabolite
Formula: C6H13Cl2O4P
Exact mass: 249.9928513
SMILES: CC(CCl)OP(=O)(O)OC(C)CCl
InChI: InChI=1S/C6H13Cl2O4P/c1-5(3-7)11-13(9,10)12-6(2)4-8/h5-6H,3-4H2,1-2H3,(H,9,10)
Instrument: Vanquish LC, Thermo Scientific; Exploris 120 Orbitrap, Thermo Scientific
Instrument type: LC-ESI-FT
Ms type: MS2
Ion mode: NEGATIVE
Collision energy: 30% (nominal)
Retention time: 4.13310673298836
Precursor m/z: 248.98569
Precursor type: [M-H]-
m/z	relative intensity
180.91194	999
