Mass spectrum: PFOA; LC-ESI-FT; MS2; CE 20 eV; [M-H]-
Name: PFOA
Name: 2,2,3,3,4,4,5,5,6,6,7,7,8,8,8-pentadecafluorooctanoic acid
Class: Non-Natural Product; Per- and polyfluoroalkyl substances
Formula: C8HF15O2
Exact mass: 413.9737017
SMILES: C(=O)(C(C(C(C(C(C(C(F)(F)F)(F)F)(F)F)(F)F)(F)F)(F)F)(F)F)O
InChI: InChI=1S/C8HF15O2/c9-2(10,1(24)25)3(11,12)4(13,14)5(15,16)6(17,18)7(19,20)8(21,22)23/h(H,24,25)
Instrument: Vanquish LC, Thermo Scientific; Exploris 120 Orbitrap, Thermo Scientific
Instrument type: LC-ESI-FT
Ms type: MS2
Ion mode: NEGATIVE
Collision energy: 20 eV
Retention time: 6.03712483507792
Precursor m/z: 412.96658
Precursor type: [M-H]-
m/z	relative intensity
118.99245	99
168.98921	999
218.98618	170
226.70117	30
368.97635	91
