Mass spectrum: Propane, 2,2-dichloro-; GC-EI-QTOF; MS; CE 70 V
Name: Propane, 2,2-dichloro-
Name: Dimethyldichloromethane
Class: Non-Natural Product
Formula: C3H6Cl2
Exact mass: 111.985
SMILES: CC(C)(Cl)Cl
InChI: InChI=1S/C3H6Cl2/c1-3(2,4)5/h1-2H3
Instrument: Agilent 7250 GC/QTOF
Instrument type: GC-EI-QTOF
Ms type: MS
Ion mode: POSITIVE
Ionization: EI
Collision energy: 0
m/z	relative intensity
37.0072764517	10
38.0151014836	15
39.0229265155	93
41.0385765793	304
48.9839541936	27
60.9839541936	107
62.981007810205	35
76.0074292893	12
77.0152543212	999
78.0186700075894	27
79.0123156830712	298
96.9606319355	187
98.9576837386975	114
100.954739363828	17
