Mass spectrum: DPP; LC-ESI-FT; MS2; CE 30% (nominal); [M-H]-
Name: DPP
Name: diphenyl hydrogen phosphate
Class: Non-Natural Product; OPFR metabolite
Formula: C12H11O4P
Exact mass: 250.03949583
SMILES: C1=CC=C(C=C1)OP(=O)(O)OC2=CC=CC=C2
InChI: InChI=1S/C12H11O4P/c13-17(14,15-11-7-3-1-4-8-11)16-12-9-5-2-6-10-12/h1-10H,(H,13,14)
Instrument: Vanquish LC, Thermo Scientific; Exploris 120 Orbitrap, Thermo Scientific
Instrument type: LC-ESI-FT
Ms type: MS2
Ion mode: NEGATIVE
Collision energy: 30% (nominal)
Retention time: 4.34751953345935
Precursor m/z: 249.03224
Precursor type: [M-H]-
m/z	relative intensity
93.03461	25
249.03230	999
250.03569	65
