Mass spectrum: 2,2-Diallylbisphenol A; LC-ESI-QTOF; MS2; CE: 20 eV; [M-H]-
Name: 2,2-Diallylbisphenol A
Name: Bisphenol_A_DABPA
Class: Non-Natural Product; Bisphenol
Formula: C21H24O2
Exact mass: 308.17763
SMILES: CC(C)(C1C=C(CC=C)C(O)=CC=1)C1C=C(CC=C)C(O)=CC=1
InChI: InChI=1S/C21H24O2/c1-5-7-15-13-17(9-11-19(15)22)21(3,4)18-10-12-20(23)16(14-18)8-6-2/h5-6,9-14,22-23H,1-2,7-8H2,3-4H3
Instrument: AGILENT 6546 LC/QToF
Instrument type: LC-ESI-QTOF
Ms type: MS2
Ion mode: NEGATIVE
Ionization: ESI
Collision energy: 20 eV
Precursor m/z: 307.17035
Precursor type: [M-H]-
m/z	relative intensity
173.09735	37
250.12081	31
264.11567	25
275.16547	13
277.12334	117
278.12675	23
291.13881	38
292.14677	107
293.15015	29
307.17049	999
308.17364	324
308.18563	13
309.17669	47
