Mass spectrum: Trichloroethylene; GC-EI-QTOF; MS; CE 70 V
Name: Trichloroethylene
Name: 1,1,2-trichloroethene
Class: Non-Natural Product, Solvent
Formula: C2HCl3
Exact mass: 129.914383072
SMILES: ClC=C(Cl)Cl
InChI: InChI=1S/C2HCl3/c3-1-2(4)5/h1H
Instrument: Agilent 7250 GC/QTOF
Instrument type: GC-EI-QTOF
Ms type: MS
Ion mode: POSITIVE
Ionization: EI
Collision energy: 70 V
Retention time: 14.01
m/z	relative intensity
25.0071406971404	18
34.968215775848	36
36.965106786223	11
43.0177851051835	18
46.9682209119785	82
47.9760272233819	31
48.9653437227902	29
58.9683096776273	65
59.9760944173606	426
60.9653680375941	20
61.9732210471039	127
64.9561823927372	14
65.9552463375052	13
81.9368649040245	15
93.936936563877	71
94.9449435751974	999
95.9340416530227	43
95.9477987457761	25
96.9419011371541	584
97.9451398158529	13
98.9389622470385	92
129.91365635734	749
130.916581466427	16
131.910661810249	681
133.9075223054	194
135.904080266892	19
