Mass spectrum: PFDA; LC-ESI-FT; MS2; CE 10 eV; [M-H]-
Name: PFDA
Name: 2,2,3,3,4,4,5,5,6,6,7,7,8,8,9,9,10,10,10-nonadecafluorodecanoic acid
Class: Non-Natural Product; Perfluoroalkyl carboxylic acid
Formula: C10HF19O2
Exact mass: 513.9673143
SMILES: C(=O)(C(C(C(C(C(C(C(C(C(F)(F)F)(F)F)(F)F)(F)F)(F)F)(F)F)(F)F)(F)F)(F)F)O
InChI: InChI=1S/C10HF19O2/c11-2(12,1(30)31)3(13,14)4(15,16)5(17,18)6(19,20)7(21,22)8(23,24)9(25,26)10(27,28)29/h(H,30,31)
Instrument: Vanquish LC, Thermo Scientific; Exploris 120 Orbitrap, Thermo Scientific
Instrument type: LC-ESI-FT
Ms type: MS2
Ion mode: NEGATIVE
Collision energy: 10 eV
Retention time: 7.00496200027466
Precursor m/z: 512.96069
Precursor type: [M-H]-
m/z	relative intensity
130.94418	678
226.69733	999
