Mass spectrum: CMP; GC-EI-FT; MS; POSITIVE; CE 40 eV
Name: CMP
Name: 4-chloro-2-methylphenol
Class: Non-Natural Product; Semi-volatile organic contaminants (SVOCs)
Formula: C7H7ClO
Exact mass: 142.0185425
SMILES: CC1=C(C=CC(=C1)Cl)O
InChI: InChI=1S/C7H7ClO/c1-5-4-6(8)2-3-7(5)9/h2-4,9H,1H3
Instrument: Trace 1310 GC, Thermo Scientific; Q Exactive Orbitrap, Thermo Scientific
Instrument type: GC-EI-FT
Ms type: MS
Ion mode: POSITIVE
Collision energy: 40 eV
Retention time: 7.385
Base peak: 107.049194
m/z	relative intensity
63.022999	17
72.984039	17
75.023018	19
77.038643	329
78.042015	29
78.046486	33
79.054237	165
89.038582	112
95.049217	22
105.044815	24
107.049194	999
108.052528	81
112.007515	14
113.015305	42
115.012405	14
124.007545	21
141.010147	146
142.013885	16
142.018051	944
143.007309	44
143.021408	78
144.01503	296
145.018509	23
