Mass spectrum: Bisphenol-AP-AF ; LC-ESI-QTOF; MS2; CE: 20 eV; [M-H]- 
Name: Bisphenol AP AF 
Name: BAHF (BIS TMC)
Class: Non-Natural Product; Bisphenol
Formula: C15H12F6N2O2
Exact mass: 366.0803
SMILES: C1=CC(=C(C=C1C(C2=CC(=C(C=C2)O)N)(C(F)(F)F)C(F)(F)F)N)O
InChI: InChI=1S/C15H12F6N2O2/c16-14(17,18)13(15(19,20)21,7-1-3-11(24)9(22)5-7)8-2-4-12(25)10(23)6-8/h1-6,24-25H,22-23H2
Instrument: AGILENT 6546 LC/QToF
Instrument type: LC-ESI-QTOF
Ms type: MS2
Ion mode: NEGATIVE
Ionization: ESI
Collision energy: 20 eV
Precursor m/z: 365.07303
Precursor type: [M-H]-
m/z	relative intensity
61.98892	11
68.99571	22
85.02695	10
100.04927	12
100.93252	19
111.0442	10
112.93369	12
125.06034	16
135.08064	10
145.05042	18
153.1309	25
164.93141	14
176.03467	12
178.98081	22
191.00829	18
198.15897	16
223.09607	16
228.93403	12
235.06108	11
235.1704	47
236.01318	13
242.94933	10
264.92904	11
266.07941	16
268.01976	10
275.06349	278
276.0249	13
276.0685	33
277.02809	10
277.07075	24
295.02441	23
295.06975	999
296.02884	91
296.07366	217
297.07698	45
298.01116	12
298.07565	10
317.1145	31
317.12698	12
323.22178	18
364.98851	26
365.02488	296
365.04644	25
365.0727	234
365.20207	10
365.23573	29
366.02829	94
366.07655	72
366.20434	12
367.15823	12
367.18009	27
368.2208	23
369.16942	21
369.47812	10
372.43549	10
410.24197	16
445.75365	19
852.09924	13
870.50833	24
993.61542	16
