Mass spectrum: 2,2-DIHYDROXY-4-METHOXY-BENZOPHENONE; LC-ESI-QTOF; MS2; CE: 20 eV; [M-H]-
Name: 2,2'-DIHYDROXY-4-METHOXY-BENZOPHENONE
Name: Dioxybenzone
Class: Non-Natural Product; Bisphenol
Formula: C14H12O4
Exact mass: 244.073558864
SMILES: COC1=CC(O)=C(C=C1)C(=O)C1=CC=CC=C1O
InChI: InChI=1S/C14H12O4/c1-18-9-6-7-11(13(16)8-9)14(17)10-4-2-3-5-12(10)15/h2-8,15-16H,1H3
Instrument: AGILENT 6546 LC/QToF
Instrument type: LC-ESI-QTOF
Ms type: MS2
Ion mode: NEGATIVE
Ionization: ESI
Collision energy: 20 eV
Precursor m/z: 243.06628
Precursor type: [M-H]-
m/z	relative intensity
93.0346	999
94.0379	89
108.02163	201
109.02485	15
123.04529	880
124.0485	93
184.0529	26
195.04506	37
199.07633	11
210.03238	19
211.0399	18
225.05559	32
243.06629	17
