Mass spectrum: 4-BromoBenzoTriBromide; GC-EI-FT; MS; POSITIVE; CE 40 eV
Name: 4-BromoBenzoTriBromide
Name: 1-bromo-4-(tribromomethyl)benzene
Name: BBTB
Class: Non-Natural Product; Semi-volatile organic contaminants (SVOCs)
Formula: C7H4Br4
Exact mass: 407.70055
SMILES: C1=CC(=CC=C1C(Br)(Br)Br)Br
InChI: InChI=1S/C7H4Br4/c8-6-3-1-5(2-4-6)7(9,10)11/h1-4H
Instrument: Trace 1310 GC, Thermo Scientific; Q Exactive Orbitrap, Thermo Scientific
Instrument type: GC-EI-FT
Ms type: MS
Ion mode: POSITIVE
Collision energy: 40 eV
Retention time: 12.511
Base peak: 165.069778
m/z	relative intensity
61.007313	46
62.015137	168
63.022964	88
67.05426	40
78.917778	256
79.054245	63
79.925575	392
80.915741	273
81.069901	55
81.923546	402
85.007286	77
86.015083	186
87.022926	246
88.030724	472
89.038536	392
91.054237	89
96.973465	43
97.972427	51
105.069916	42
115.054245	44
116.933418	247
117.923553	42
118.931404	243
122.933441	77
123.43734	42
123.932449	160
124.436363	74
124.931427	85
140.933426	82
142.931412	71
162.392548	54
163.391525	129
164.390518	138
165.389511	48
166.948975	996
167.952423	70
167.956863	102
168.946915	981
168.964676	49
169.950363	78
169.954803	105
170.962631	44
180.952087	49
182.950073	49
245.867477	101
246.875214	397
247.865417	206
248.873123	796
249.863373	101
249.876587	64
250.87114	389
324.785583	335
326.783417	999
327.786957	75
328.781372	964
329.784882	72
330.77948	310
