Mass spectrum: PFEtS; LC-ESI-FT; MS2; CE 10 eV; [M-H]-
Name: PFEtS
Name: 1,1,2,2,2-pentafluoroethanesulfonic acid
Class: Non-Natural Product; Short-chained per- and polyfluoroalkyl substances (PFAS)
Formula: C2HF5O3S
Exact mass: 199.95665587
SMILES: C(C(F)(F)S(=O)(=O)O)(F)(F)F
InChI: InChI=1S/C2HF5O3S/c3-1(4,5)2(6,7)11(8,9)10/h(H,8,9,10)
Instrument: Vanquish LC, Thermo Scientific; Exploris 120 Orbitrap, Thermo Scientific
Instrument type: LC-ESI-FT
Ms type: MS2
Ion mode: NEGATIVE
Collision energy: 10 eV
Retention time: 7.53793455225627
Precursor m/z: 198.94884
Precursor type: [M-H]-
m/z	relative intensity
51.73583	1
79.95863	4
80.64922	1
82.19115	1
82.96107	1
86.96119	1
97.74893	1
101.65341	1
198.94917	999
