Mass spectrum: 2,4 Bisphenol S; LC-ESI-QTOF; MS2; CE: 10 eV; [M-H]-
Name: 2,4 Bisphenol S
Name: 2,4-Dihydroxydiphenyl sulfone
Class: Non-Natural Product; Bisphenol
Formula: C12H10O4S
Exact mass: 250.02998
SMILES: C1=CC=C(C(=C1)O)S(=O)(=O)C2=CC=C(C=C2)O
InChI: InChI=1S/C12H10O4S/c13-9-5-7-10(8-6-9)17(15,16)12-4-2-1-3-11(12)14/h1-8,13-14H
Instrument: AGILENT 6546 LC/QToF
Instrument type: LC-ESI-QTOF
Ms type: MS2
Ion mode: NEGATIVE
Ionization: ESI
Collision energy: 10 eV
Precursor m/z: 249.02271
Precursor type: [M-H]-
m/z	relative intensity
92.02679	37
108.02168	332
108.02897	20
109.02562	39
155.98883	237
156.99242	14
157.98484	10
207.13957	24
249.02299	999
249.03407	68
249.0594	12
250.02663	168
250.03874	10
251.01886	79
251.0287	31
252.02197	13
