Mass spectrum: 8:2-FTSA; LC-ESI-FT; MS2; CE 20 eV; [M-H]-
Name: 8:2-FTSA
Name: 3,3,4,4,5,5,6,6,7,7,8,8,9,9,10,10,10-heptadecafluorodecane-1-sulfonic acid
Class: Non-Natural Product; Per- and polyfluoroalkyl substances
Formula: C10H5F17O3S
Exact mass: 527.9687939
SMILES: C(CS(=O)(=O)O)C(C(C(C(C(C(C(C(F)(F)F)(F)F)(F)F)(F)F)(F)F)(F)F)(F)F)(F)F
InChI: InChI=1S/C10H5F17O3S/c11-3(12,1-2-31(28,29)30)4(13,14)5(15,16)6(17,18)7(19,20)8(21,22)9(23,24)10(25,26)27/h1-2H2,(H,28,29,30)
Instrument: Vanquish LC, Thermo Scientific; Exploris 120 Orbitrap, Thermo Scientific
Instrument type: LC-ESI-FT
Ms type: MS2
Ion mode: NEGATIVE
Collision energy: 20 eV
Retention time: 6.67810531717936
Precursor m/z: 526.96210
Precursor type: [M-H]-
m/z	relative intensity
80.96507	52
506.95517	166
526.96179	999
