Mass spectrum: METHYL TERT-BUTYL ETHER; GC-EI-QTOF; MS; CE 70 V
Name: METHYL TERT-BUTYL ETHER
Name: 2-methoxy-2-methylpropane
Class: Non-Natural Product
Formula: C5H12O
Exact mass: 88.088815004
SMILES: COC(C)(C)C
InChI: InChI=1S/C5H12O/c1-5(2,3)6-4/h1-4H3
Instrument: Agilent 7250 GC/QTOF
Instrument type: GC-EI-QTOF
Ms type: MS
Ion mode: POSITIVE
Ionization: EI
Collision energy: 70 V
Retention time: 7.5
m/z	relative intensity
27.0227323236175	15
29.0384989775938	50
39.0229106253479	65
41.0387005638739	319
42.046389550881	28
43.0178929448312	74
43.0542282686342	148
45.0336261929192	101
53.0388216996502	11
55.054519679258	64
56.0620947621295	78
57.0336861529626	10
57.0700279205391	285
58.0735808356241	11
73.065058691521	999
74.0681929800789	36
