Mass spectrum: Metilox; GC-EI-FT; MS; POSITIVE; CE 40 eV
Name: Metilox
Name: methyl 3-(3,5-ditert-butyl-4-hydroxyphenyl)propanoate
Class: Non-Natural Product; Semi-volatile organic contaminants (SVOCs)
Formula: C18H28O3
Exact mass: 292.20384475
SMILES: CC(C)(C)C1=CC(=CC(=C1O)C(C)(C)C)CCC(=O)OC
InChI: InChI=1S/C18H28O3/c1-17(2,3)13-10-12(8-9-15(19)21-7)11-14(16(13)20)18(4,5)6/h10-11,20H,8-9H2,1-7H3
Instrument: Trace 1310 GC, Thermo Scientific; Q Exactive Orbitrap, Thermo Scientific
Instrument type: GC-EI-FT
Ms type: MS
Ion mode: POSITIVE
Collision energy: 40 eV
Retention time: 11.45
Base peak: 147.080429
m/z	relative intensity
57.069927	41
77.038612	19
79.054283	20
91.05426	91
105.069939	59
115.054276	85
117.062302	24
117.069908	61
119.049232	18
119.085602	52
121.064857	23
121.10125	17
128.062042	141
129.06546	15
129.069885	126
130.077805	17
131.049225	18
131.085602	53
133.06485	49
133.101242	36
141.069901	75
142.077774	55
143.085571	83
145.064835	53
145.101227	52
147.080429	999
147.116867	15
148.083801	113
153.069931	39
154.077759	23
155.060425	20
155.085556	49
156.093414	21
157.101227	45
159.08049	55
161.096039	201
162.099487	24
169.101227	22
170.109039	21
171.080505	22
173.096146	59
175.111801	44
185.096176	25
185.132523	62
187.111755	118
189.090927	289
189.127441	28
190.094391	35
193.122375	85
201.127441	26
203.143021	266
204.146484	39
217.158813	36
219.174316	303
220.177841	50
221.117294	150
222.120712	21
235.133041	23
277.17984	608
278.18335	115
292.203461	193
293.20694	38
