Mass spectrum: PFEtS; LC-ESI-FT; MS2; CE 20 eV; [M-H]-
Name: PFEtS
Name: 1,1,2,2,2-pentafluoroethanesulfonic acid
Class: Non-Natural Product; Short-chained per- and polyfluoroalkyl substances (PFAS)
Formula: C2HF5O3S
Exact mass: 199.95665587
SMILES: C(C(F)(F)S(=O)(=O)O)(F)(F)F
InChI: InChI=1S/C2HF5O3S/c3-1(4,5)2(6,7)11(8,9)10/h(H,8,9,10)
Instrument: Vanquish LC, Thermo Scientific; Exploris 120 Orbitrap, Thermo Scientific
Instrument type: LC-ESI-FT
Ms type: MS2
Ion mode: NEGATIVE
Collision energy: 20 eV
Retention time: 7.5627679831028
Precursor m/z: 198.94887
Precursor type: [M-H]-
m/z	relative intensity
68.99555	67
76.93222	2
79.95717	999
82.96066	58
84.99048	5
98.95548	100
118.99232	54
146.77170	2
198.94902	562
