Mass spectrum: MMP; LC-ESI-FT; MS2; CE Ramp 10-30 kV; [M-H]-
Name: MMP
Name: 2-methoxycarbonylbenzoic acid
Class: Non-Natural Product; Phthalate metabolite
Formula: C9H8O4
Exact mass: 180.04225873
SMILES: COC(=O)C1=CC=CC=C1C(=O)O
InChI: InChI=1S/C9H8O4/c1-13-9(12)7-5-3-2-4-6(7)8(10)11/h2-5H,1H3,(H,10,11)
Instrument: Vanquish LC, Thermo Scientific; Exploris 120 Orbitrap, Thermo Scientific
Instrument type: LC-ESI-FT
Ms type: MS2
Ion mode: NEGATIVE
Collision energy: Ramp 10-30 kV
Retention time: 3.87983531815211
Precursor m/z: 179.03471
Precursor type: [M-H]-
m/z	relative intensity
107.05009	999
