Mass spectrum: 2,2-Bis(4-hydroxyphenyl)propanol; LC-ESI-QTOF; MS2; CE: 40 eV; [M-H]-
Name: 2,2-Bis(4-hydroxyphenyl)propanol
Name: 4-HYDROXY-BETA-(4-HYDROXYPHENYL)-BETA-METHYLBENZENEETHANOL
Class: Non-Natural Product; Bisphenol
Formula: C15H16O3
Exact mass: 244.10994
SMILES: CC(CO)(C1=CC=C(C=C1)O)C2=CC=C(C=C2)O
InChI: InChI=1S/C15H16O3/c1-15(10-16,11-2-6-13(17)7-3-11)12-4-8-14(18)9-5-12/h2-9,16-18H,10H2,1H3
Instrument: AGILENT 6546 LC/QToF
Instrument type: LC-ESI-QTOF
Ms type: MS2
Ion mode: NEGATIVE
Ionization: ESI
Collision energy: 40 eV
Precursor m/z: 243.10268
Precursor type: [M-H]-
m/z	relative intensity
65.03965	12
68.99541	106
92.02707	26
93.03462	639
93.0416	22
94.03764	39
106.04249	25
117.03465	132
118.03931	37
119.0503	86
130.04337	14
133.06638	31
134.03732	332
135.04103	51
147.04488	11
167.04997	11
168.05851	21
169.06451	60
170.07343	15
171.07926	10
180.05802	61
181.06513	62
182.07323	26
183.08131	22
194.07335	23
195.04575	44
195.07987	13
196.05228	64
196.08894	11
197.06039	209
198.06626	70
208.05312	115
209.06161	557
210.06255	62
210.06883	218
211.05774	12
211.0769	999
212.08045	200
213.08016	12
222.0677	13
223.07662	40
224.08172	79
225.08959	27
