Mass spectrum: Tetrabromo-p-xylene; EI-QTOF; MS; CE: 70 V
Name: Tetrabromo-p-xylene
Name: p-TBX
Class: Non-Natural Product; Brominated flame retardant
Formula: C8H6Br4
Exact mass: 417.7203017914
SMILES: CC1=C(C(=C(C(=C1Br)Br)C)Br)Br
InChI: InChI=1S/C8H6Br4/c1-3-5(9)7(11)4(2)8(12)6(3)10/h1-2H3
Instrument: Agilent 7200 GC/QTOF
Instrument type: GC-EI-QTOF
Ms type: MS
Ion mode: POSITIVE
Ionization: EI
Collision energy: 70 V
Retention time: 6.26
m/z	relative intensity
31.9899908216015	10
39.0239432489112	13
49.0083884136861	18
49.5116717321387	18
50.0159635996984	139
51.0235746296243	106
52.0314667152606	23
53.0393033653664	19
61.0078822004983	30
62.0153544417904	35
63.0233319393624	39
73.0076696319407	19
74.0152137398762	139
75.0232202689214	164
76.0308398815759	103
77.0385678262137	14
79.9262488748985	16
81.9238055111594	16
85.007485622138	38
86.0154596154943	53
87.0229981885025	55
88.9710789878972	18
89.4736877668303	15
89.9780485142156	115
90.4775927378447	16
90.9772583409453	106
91.054436411987	11
91.4801188343987	14
97.0063000376547	11
98.0152935116221	60
99.0229739930515	60
100.030901402195	76
101.038764607108	245
101.0766279546	10
102.046473860042	482
103.051623595965	38
116.933426226027	14
118.931517098842	13
128.932981762108	34
129.934669522709	37
130.437351912249	21
130.936844769094	50
131.438026852787	16
131.938827805704	16
139.925251841235	10
140.933534127231	19
141.92465567393	11
142.930955670204	13
164.933954477957	18
165.937203408448	10
166.932705536086	19
167.937650253932	10
169.399816056213	24
170.399147553912	65
171.398227248113	66
172.396038030133	20
178.94861885402	23
179.956945173237	177
180.963730591265	169
181.005501026979	12
181.95572198599	168
182.962624090274	154
183.008662711879	10
183.966775045961	16
258.875133434828	71
259.882701471153	115
260.874588003515	152
261.880825236601	240
261.940553230451	13
262.875880120366	79
263.879623198132	98
264.884124653554	14
337.794906549628	20
338.801579739207	175
338.867957592942	12
339.795026313488	70
340.799728550702	529
341.797246849302	97
342.798049872152	529
343.799167079371	63
344.795869581936	159
345.799562617887	16
417.720114617365	139
418.716078776777	14
419.718398399394	650
420.719176272797	52
421.716526038679	999
422.718380178974	74
423.714613535254	594
424.7177358096	43
425.712196784198	123
