Mass spectrum: XYLENOL; LC-ESI-QTOF; MS2; CE: 10 eV; [M-H]-
Name: XYLENOL
Name: TMBPF
Class: Non-Natural Product; Bisphenol
Formula: C17H20O2
Exact mass: 256.14633
SMILES: CC1=CC(=CC(=C1O)C)CC2=CC(=C(C(=C2)C)O)C
InChI: InChI=1S/C17H20O2/c1-10-5-14(6-11(2)16(10)18)9-15-7-12(3)17(19)13(4)8-15/h5-8,18-19H,9H2,1-4H3
Instrument: AGILENT 6546 LC/QToF
Instrument type: LC-ESI-QTOF
Ms type: MS2
Ion mode: NEGATIVE
Ionization: ESI
Collision energy: 10 eV
Precursor m/z: 255.13905
Precursor type: [M-H]-
m/z	relative intensity
255.13906	999
255.15042	34
255.23245	10
256.14237	256
256.15351	19
257.14517	26
257.21223	59
258.21548	11
