Mass spectrum: BDCPP; LC-ESI-FT; MS2; CE 30% (nominal); [M-H]-
Name: BDCPP
Name: bis(1,3-dichloropropan-2-yl) hydrogen phosphate
Class: Non-Natural Product; OPFR metabolite
Formula: C6H11Cl4O4P
Exact mass: 319.911956
SMILES: C(C(CCl)OP(=O)(O)OC(CCl)CCl)Cl
InChI: InChI=1S/C6H11Cl4O4P/c7-1-5(2-8)13-15(11,12)14-6(3-9)4-10/h5-6H,1-4H2,(H,11,12)
Instrument: Vanquish LC, Thermo Scientific; Exploris 120 Orbitrap, Thermo Scientific
Instrument type: LC-ESI-FT
Ms type: MS2
Ion mode: NEGATIVE
Collision energy: 30% (nominal)
Retention time: 5.04317372304598
Precursor m/z: 316.90814
Precursor type: [M-H]-
m/z	relative intensity
59.18240	41
63.05370	44
112.98543	999
132.62419	42
177.51686	53
226.68985	140
