Mass spectrum: alpha/beta - 1,2-Dibromo-4-(1,2-dibromoethyl)cyclohexane; EI-QTOF; MS; CE 70 V
Name: alpha/beta - 1,2-Dibromo-4-(1,2-dibromoethyl)cyclohexane
Name: a/b - TBECH
Class: Non-Natural Product; Brominated flame retardant
Formula: C8H12Br4
Exact mass: 423.7672519828
SMILES: C1CC(C(CC1C(CBr)Br)Br)Br
InChI: InChI=1S/C8H12Br4/c9-4-8(12)5-1-2-6(10)7(11)3-5/h5-8H,1-4H2
Instrument: Agilent 7200 GC/QTOF
Instrument type: GC-EI-QTOF
Ms type: MS
Ion mode: POSITIVE
Ionization: EI
Collision energy: 70 V
Retention time: 6.06
m/z	relative intensity
27.0235164378266	22
31.9898666569325	13
39.0237293693904	109
41.0393329718815	111
50.0155914401004	18
51.0234691235096	84
52.0312760731142	76
53.0391049816489	186
54.0468833792317	70
55.0547090129942	14
63.023057977315	16
65.0387228382562	82
66.0464295041312	39
67.0544412639778	97
71.0858748017631	10
77.0387031413504	164
78.0461517335599	62
78.9177142876305	10
79.0542269142594	508
79.9259454588579	26
80.0605332151986	64
81.0700205291705	96
81.9233835480109	26
91.054210789848	255
92.0604688847884	28
93.000823355187	16
93.0698261853362	46
94.0005963481778	14
103.053881163341	40
104.062108618882	17
105.069865743872	999
106.076432163121	234
106.111329761428	11
106.948127926708	20
107.085221447389	418
108.090430108736	37
108.946874910598	17
118.948806188406	38
120.946893449903	28
132.963546294519	13
134.962732775685	11
144.964323861876	13
146.962680721466	17
156.964189872873	14
158.9698821279	14
160.978873888025	11
184.995913361303	456
185.999296917969	40
186.994476079909	413
187.999012204489	39
189.009803230253	39
207.032320960894	14
264.921808407254	329
265.925729681158	31
266.919901079808	714
267.92377819054	52
268.917367474991	322
269.921457247288	27
346.844543941422	15
348.843446869806	15
