Mass spectrum: BCEP; LC-ESI-FT; MS2; CE 30% (nominal); [M-H]-
Name: BCEP
Name: bis(2-chloroethyl) hydrogen phosphate
Class: Non-Natural Product; OPFR metabolite
Formula: C4H9Cl2O4P
Exact mass: 221.9615511
SMILES: C(CCl)OP(=O)(O)OCCCl
InChI: InChI=1S/C4H9Cl2O4P/c5-1-3-9-11(7,8)10-4-2-6/h1-4H2,(H,7,8)
Instrument: Vanquish LC, Thermo Scientific; Exploris 120 Orbitrap, Thermo Scientific
Instrument type: LC-ESI-FT
Ms type: MS2
Ion mode: NEGATIVE
Collision energy: 30% (nominal)
Retention time: 1.26585912369092
Precursor m/z: 220.95407
Precursor type: [M-H]-
m/z	relative intensity
101.94080	849
145.93062	999
176.94835	176
192.92860	225
