Mass spectrum: pBDN; GC-EI-FT; MS; POSITIVE; CE 40 eV
Name: pBDN
Name: benzene-1,4-dicarbonitrile
Class: Non-Natural Product; Semi-volatile organic contaminants (SVOCs)
Formula: C8H4N2
Exact mass: 128.037448136
SMILES: C1=CC(=CC=C1C#N)C#N
InChI: InChI=1S/C8H4N2/c9-5-7-1-2-8(6-10)4-3-7/h1-4H
Instrument: Trace 1310 GC, Thermo Scientific; Q Exactive Orbitrap, Thermo Scientific
Instrument type: GC-EI-FT
Ms type: MS
Ion mode: POSITIVE
Collision energy: 40 eV
Retention time: 7.324
Base peak: 128.036819
m/z	relative intensity
52.0182	1
61.007294	3
62.015118	1
63.010395	2
63.022957	1
64.018211	6
66.04644	1
73.007317	3
74.002548	2
74.015099	24
75.01033	48
75.018501	2
75.022957	7
76.01371	3
76.018166	29
76.030769	11
77.013428	1
77.021538	2
77.026001	6
86.002533	2
86.015083	1
87.010368	2
88.018173	11
89.013405	1
89.021538	1
91.041634	27
92.044991	2
98.002533	1
99.01033	18
100.005577	10
100.01371	1
100.018143	22
101.013435	8
101.021591	2
101.02597	132
102.021263	3
102.029358	12
102.033821	1
113.013412	2
118.028709	1
119.036575	10
124.005585	2
127.029007	5
128.009995	1
128.026779	1
128.031555	1
128.032516	2
128.033279	4
128.034058	8
128.034668	10
128.036819	999
128.062973	1
128.418015	1
129.033936	8
129.038055	1
129.038666	1
129.040146	84
130.039948	1
130.043671	3
