Mass spectrum: OCSt; GC-EI-FT; MS; POSITIVE; CE 40 eV
Name: OCSt
Name: 1,2,3,4,5-pentachloro-6-(1,2,2-trichloroethenyl)benzene
Class: Non-Natural Product; Semi-volatile organic contaminants (SVOCs)
Formula: C8Cl8
Exact mass: 379.744921
SMILES: C1(=C(C(=C(C(=C1Cl)Cl)Cl)Cl)Cl)C(=C(Cl)Cl)Cl
InChI: InChI=1S/C8Cl8/c9-2-1(4(11)8(15)16)3(10)6(13)7(14)5(2)12
Instrument: Trace 1310 GC, Thermo Scientific; Q Exactive Orbitrap, Thermo Scientific
Instrument type: GC-EI-FT
Ms type: MS
Ion mode: POSITIVE
Collision energy: 40 eV
Retention time: 12.138
Base peak: 307.80954
m/z	relative intensity
100.452812	46
101.451324	54
117.937172	230
118.93576	163
118.968391	66
119.934265	156
129.937271	73
130.968369	179
131.934296	56
132.965439	53
135.421661	74
136.420181	128
137.418716	81
140.906052	67
141.937225	204
142.903122	55
143.934265	155
152.906006	382
153.904495	681
153.937195	90
154.40625	59
154.903015	546
155.901611	216
155.93425	53
156.900177	63
164.906067	52
165.937103	740
166.940552	63
167.934189	474
169.931305	74
176.906067	55
178.903091	45
187.874924	47
188.873428	73
189.871964	112
190.903107	51
200.906036	338
202.903076	335
204.900192	115
235.874985	441
237.871994	571
239.86911	274
241.866196	47
270.844055	289
272.841064	462
274.838135	277
276.835114	88
305.812683	516
307.80954	999
308.81311	78
309.806671	798
310.810181	72
311.803894	313
313.800995	91
340.781403	235
342.778412	531
343.781738	48
344.775482	491
346.772583	255
348.769653	85
375.750275	113
377.747345	279
379.744385	310
381.741486	189
383.738495	74
