Mass spectrum: Jasminal; GC-EI-FT; MS; POSITIVE; CE 40 eV
Name: Jasminal
Name: 2-benzylideneheptanal
Class: Non-Natural Product; Semi-volatile organic contaminants (SVOCs)
Formula: C14H18O
Exact mass: 202.135765193
SMILES: CCCCCC(=CC1=CC=CC=C1)C=O
InChI: InChI=1S/C14H18O/c1-2-3-5-10-14(12-15)11-13-8-6-4-7-9-13/h4,6-9,11-12H,2-3,5,10H2,1H3
Instrument: Trace 1310 GC, Thermo Scientific; Q Exactive Orbitrap, Thermo Scientific
Instrument type: GC-EI-FT
Ms type: MS
Ion mode: POSITIVE
Collision energy: 40 eV
Retention time: 9.942
Base peak: 129.069885
m/z	relative intensity
65.038643	24
67.054291	31
77.038612	57
78.046463	51
79.054283	18
81.069954	13
89.038612	47
91.054253	390
92.057625	36
92.062096	17
93.069969	12
95.049194	38
102.046463	33
103.054276	54
104.062088	46
105.033569	28
105.069946	24
111.080498	38
115.054253	868
116.057617	91
116.062057	172
117.065453	18
117.069893	573
118.073265	62
118.077751	38
124.088348	15
126.046486	14
127.054291	39
128.062027	223
129.06546	28
129.069885	999
130.073288	119
130.077789	45
131.049164	162
131.085541	224
132.052582	17
132.057068	20
132.088974	32
133.06488	12
141.069855	190
142.073334	24
142.077789	37
143.085617	33
144.057037	24
145.064774	411
145.101227	57
146.068207	47
146.072662	37
153.069931	20
155.06041	57
155.085556	72
157.06485	13
158.072662	73
159.080475	71
169.101242	16
171.116867	40
173.096115	129
174.099548	18
174.104004	10
201.127335	213
202.131027	30
202.135208	130
203.138687	21
