Mass spectrum: BBOEP; LC-ESI-FT; MS2; CE 30% (nominal); [M-H]-
Name: BBOEP
Name: bis(2-butoxyethyl) hydrogen phosphate
Class: Non-Natural Product; OPFR metabolite
Formula: C12H27O6P
Exact mass: 298.15452557
SMILES: CCCCOCCOP(=O)(O)OCCOCCCC
InChI: InChI=1S/C12H27O6P/c1-3-5-7-15-9-11-17-19(13,14)18-12-10-16-8-6-4-2/h3-12H2,1-2H3,(H,13,14)
Instrument: Vanquish LC, Thermo Scientific; Exploris 120 Orbitrap, Thermo Scientific
Instrument type: LC-ESI-FT
Ms type: MS2
Ion mode: NEGATIVE
Collision energy: 30% (nominal)
Retention time: 5.39022750916481
Precursor m/z: 297.14713
Precursor type: [M-H]-
m/z	relative intensity
78.95895	999
