Mass spectrum: 2,2-Methylenebis(6-cyclohexyl-p-cresol); LC-ESI-QTOF; MS2; CE: 10 eV; [M-H]-
Name: 2,2'-Methylenebis(6-cyclohexyl-p-cresol)
Name: AO ZKF
Class: Non-Natural Product; Bisphenol
Formula: C27H36O2
Exact mass: 392.27153
SMILES: CC1=CC(CC2C=C(C)C=C(C3CCCCC3)C=2O)=C(O)C(=C1)C1CCCCC1
InChI: InChI=1S/C27H36O2/c1-18-13-22(26(28)24(15-18)20-9-5-3-6-10-20)17-23-14-19(2)16-25(27(23)29)21-11-7-4-8-12-21/h13-16,20-21,28-29H,3-12,17H2,1-2H3
Instrument: AGILENT 6546 LC/QToF
Instrument type: LC-ESI-QTOF
Ms type: MS2
Ion mode: NEGATIVE
Ionization: ESI
Collision energy: 10 eV
Precursor m/z: 391.26425
Precursor type: [M-H]-
m/z	relative intensity
189.12838	58
391.26461	999
392.26767	367
393.27086	53
