Mass spectrum: TXIB; GC-EI-FT; MS; POSITIVE; CE 40 eV
Name: TXIB
Name: [2,2,4-trimethyl-3-(2-methylpropanoyloxy)pentyl] 2-methylpropanoate
Class: Non-Natural Product; Semi-volatile organic contaminants (SVOCs)
Formula: C16H30O4
Exact mass: 286.21440943
SMILES: CC(C)C(C(C)(C)COC(=O)C(C)C)OC(=O)C(C)C
InChI: InChI=1S/C16H30O4/c1-10(2)13(20-15(18)12(5)6)16(7,8)9-19-14(17)11(3)4/h10-13H,9H2,1-8H3
Instrument: Trace 1310 GC, Thermo Scientific; Q Exactive Orbitrap, Thermo Scientific
Instrument type: GC-EI-FT
Ms type: MS
Ion mode: POSITIVE
Collision energy: 40 eV
Retention time: 9.539
Base peak: 71.049149
m/z	relative intensity
53.038589	3
55.017845	3
55.054226	67
56.057564	3
56.062038	33
57.033493	6
57.069874	20
67.05423	21
68.06208	3
69.033493	5
69.068825	3
69.069855	258
70.041328	27
70.07325	18
70.077744	3
71.047951	4
71.049149	999
71.050316	3
71.085533	9
72.052475	53
72.056961	3
73.028419	7
73.053375	3
73.064796	20
77.038544	5
79.054199	11
81.069862	21
82.04129	18
82.077652	3
83.049095	11
83.085419	193
84.08886	16
85.064751	54
85.101151	5
86.072586	4
87.044037	4
89.059639	70
90.063072	3
91.054199	8
93.069862	4
95.085472	71
96.088837	5
96.0933	5
97.064789	3
97.101151	53
98.104507	5
98.108978	16
107.08551	3
109.101151	19
110.108963	17
111.080414	4
111.116692	225
112.120132	20
113.096024	19
114.103897	5
115.038979	4
115.054184	3
115.11171	8
125.096069	3
126.103882	10
127.111664	79
128.115036	7
128.119492	15
129.127335	7
142.098709	3
143.106583	70
144.109955	6
149.023254	7
155.106415	231
156.10994	22
159.101471	5
171.101456	3
173.117004	486
174.120483	49
175.121353	3
185.153503	6
215.164139	12
243.159073	98
244.162521	13
