Mass spectrum: DCDPS; GC-EI-FT; MS; POSITIVE; CE 40 eV
Name: DCDPS
Name: 1-chloro-4-(4-chlorophenyl)sulfanylbenzene
Class: Non-Natural Product; Semi-volatile organic contaminants (SVOCs)
Formula: C12H8Cl2S
Exact mass: 253.9723768
SMILES: C1=CC(=CC=C1SC2=CC=C(C=C2)Cl)Cl
InChI: InChI=1S/C12H8Cl2S/c13-9-1-5-11(6-2-9)15-12-7-3-10(14)4-8-12/h1-8H
Instrument: Trace 1310 GC, Thermo Scientific; Q Exactive Orbitrap, Thermo Scientific
Instrument type: GC-EI-FT
Ms type: MS
Ion mode: POSITIVE
Collision energy: 40 eV
Retention time: Peaks: 69
Base peak: 184.034058
m/z	relative intensity
68.979401	15
72.984001	15
74.015129	20
75.022957	82
79.008987	11
81.987198	22
84.983978	11
89.038582	10
91.008965	77
91.510666	10
91.512901	19
92.016815	12
95.989494	11
98.999626	33
100.996689	12
106.995018	17
108.002762	219
108.997314	103
109.006233	16
109.010704	16
109.499023	14
109.995895	35
109.998665	10
110.999634	15
113.038589	12
117.96386	12
136.007477	36
137.038635	13
138.004532	12
138.046448	21
139.005783	10
139.054184	150
140.057617	18
141.963898	13
142.971695	45
144.968765	15
149.015289	18
150.046432	19
151.054245	20
152.062027	90
154.97168	14
158.018494	10
173.015289	20
175.030899	20
182.018433	28
183.02626	109
184.029343	14
184.034058	999
185.037415	135
186.023087	56
186.029907	48
188.020111	18
211.032455	27
217.995117	169
218.998627	17
219.002884	215
219.992325	48
220.006378	26
221.000168	63
221.999725	36
223.996841	19
252.964142	17
253.971786	490
254.961212	11
254.975296	65
255.968826	311
256.972382	37
257.966064	51
