Mass spectrum: 24DCBN; GC-EI-FT; MS; POSITIVE; CE 40 eV
Name: 24DCBN
Name: 2,4-dichlorobenzonitrile
Class: Non-Natural Product; Semi-volatile organic contaminants (SVOCs)
Formula: C7H3Cl2N
Exact mass: 170.9642545
SMILES: C1=CC(=C(C=C1Cl)Cl)C#N
InChI: InChI=1S/C7H3Cl2N/c8-6-2-1-5(4-10)7(9)3-6/h1-3H
Instrument: Trace 1310 GC, Thermo Scientific; Q Exactive Orbitrap, Thermo Scientific
Instrument type: GC-EI-FT
Ms type: MS
Ion mode: POSITIVE
Collision energy: 40 eV
Retention time: 7.67
Base peak: 170.963608
m/z	relative intensity
73.007324	7
74.015114	31
75.010376	34
75.022972	10
76.018211	10
83.976158	20
84.983978	12
85.97319	7
86.981049	4
99.010345	45
100.01812	142
101.021576	12
107.976151	7
108.971428	10
108.983994	21
109.979233	10
109.991814	18
110.968452	4
110.981041	7
111.988853	6
118.02874	10
133.979233	8
134.98703	29
135.994873	45
136.984131	9
136.99826	4
137.991928	15
143.952835	15
145.949875	10
154.005402	6
164.000854	153
165.004349	12
165.998016	51
167.001373	4
170.95932	8
170.963608	999
171.966949	78
172.956314	6
172.960693	619
173.964081	50
174.957687	107
175.961151	8
