Mass spectrum: PFPeA; LC-ESI-FT; MS2; CE 20 eV; [M-H]-
Name: PFPeA
Name: 2,2,3,3,4,4,5,5,5-nonafluoropentanoic acid
Class: Non-Natural Product; Short-chained per- and polyfluoroalkyl substances (PFAS)
Formula: C5HF9O2
Exact mass: 263.98328273
SMILES: C(=O)(C(C(C(C(F)(F)F)(F)F)(F)F)(F)F)O
InChI: InChI=1S/C5HF9O2/c6-2(7,1(15)16)3(8,9)4(10,11)5(12,13)14/h(H,15,16)
Instrument: Vanquish LC, Thermo Scientific; Exploris 120 Orbitrap, Thermo Scientific
Instrument type: LC-ESI-FT
Ms type: MS2
Ion mode: NEGATIVE
Collision energy: 20 eV
Retention time: 8.40380511544545
Precursor m/z: 262.97571
Precursor type: [M-H]-
m/z	relative intensity
75.00857	999
99.00835	600
