Mass spectrum: Diflufenican; GC-EI-FT; MS; POSITIVE; CE 40 eV
Name: Diflufenican
Name: N-(2,4-difluorophenyl)-2-[3-(trifluoromethyl)phenoxy]pyridine-3-carboxamide
Class: Non-Natural Product; Semi-volatile organic contaminants (SVOCs)
Formula: C19H11F5N2O2
Exact mass: 394.07406841
SMILES: C1=CC(=CC(=C1)OC2=C(C=CC=N2)C(=O)NC3=C(C=C(C=C3)F)F)C(F)(F)F
InChI: InChI=1S/C19H11F5N2O2/c20-12-6-7-16(15(21)10-12)26-17(27)14-5-2-8-25-18(14)28-13-4-1-3-11(9-13)19(22,23)24/h1-10H,(H,26,27)
Instrument: Trace 1310 GC, Thermo Scientific; Q Exactive Orbitrap, Thermo Scientific
Instrument type: GC-EI-FT
Ms type: MS
Ion mode: POSITIVE
Collision energy: 40 eV
Retention time: 13.59
Base peak: 266.042389
m/z	relative intensity
78.033859	17
94.028763	15
101.019753	29
113.038582	15
114.046417	29
122.023659	16
125.019753	31
128.030624	21
129.038452	14
133.0448	38
140.049423	66
141.057266	46
143.029114	19
145.025879	89
163.035339	20
168.044373	15
169.052094	116
170.040009	33
182.033737	28
183.041519	100
189.038406	17
190.046158	105
191.041489	26
207.032349	14
210.05249	23
218.041077	199
219.044601	26
237.039658	23
238.047363	119
239.050842	14
246.036072	210
247.039581	28
266.042389	999
267.045715	145
284.053009	14
374.067169	17
394.073273	62
395.07666	13
