Mass spectrum: Tetrabromobisphenol A; LC-ESI-QTOF; MS2; CE: 40 eV; [M-H]- 
Name: Tetrabromobisphenol A
Name: 3,3',5,5'-Tetrabromobisphenol A
Class: Non-Natural Product; Bisphenol
Formula: C15H12Br4O2
Exact mass: 539.75708
SMILES: CC(C)(C1=CC(Br)=C(O)C(Br)=C1)C1=CC(Br)=C(O)C(Br)=C1
InChI: InChI=1S/C15H12Br4O2/c1-15(2,7-3-9(16)13(20)10(17)4-7)8-5-11(18)14(21)12(19)6-8/h3-6,20-21H,1-2H3
Instrument: AGILENT 6546 LC/QToF
Instrument type: LC-ESI-QTOF
Ms type: MS2
Ion mode: NEGATIVE
Ionization: ESI
Collision energy: 40 eV
Precursor m/z: 538.7511
Precursor type: [M-H]-
m/z	relative intensity
78.91863	681
78.92436	22
78.92541	15
80.91662	999
80.9229	62
168.92911	30
170.92754	16
250.85346	24
288.8853	32
290.88451	282
290.89709	17
291.88841	31
292.88224	160
292.89479	10
417.80322	265
417.81454	21
418.80541	35
419.80105	486
419.81643	52
420.80458	82
421.79893	99
422.80095	21
445.79767	193
445.81275	17
446.8012	53
446.8082	30
447.79535	488
447.8084	52
448.80152	182
448.81134	17
449.79324	136
449.80636	43
449.8146	10
450.80049	38
460.82187	21
462.82041	40
527.72103	45
529.72116	51
542.74499	509
542.76105	32
543.74922	91
544.74321	417
544.75949	47
545.74608	67
545.75717	18
546.74036	75
