Mass spectrum: 4,4-(1,3,3,3-Trimethyl-1-propene-1,3-diyl)bisphenol; ESI-QTOF; MS2; CE: 40 eV; [M-H]-
Name: 4,4-(1,3,3,3-Trimethyl-1-propene-1,3-diyl)bisphenol
Name: TMBP
Class: Non-Natural Product; Bisphenol
Formula: C18H20O2
Exact mass: 268.14633
SMILES: CC(=CC(C)(C)C1=CC=C(C=C1)O)C2=CC=C(C=C2)O
InChI: InChI=1S/C18H20O2/c1-13(14-4-8-16(19)9-5-14)12-18(2,3)15-6-10-17(20)11-7-15/h4-12,19-20H,1-3H3
Instrument: AGILENT 6546 LC/QToF
Instrument type: LC-ESI-QTOF
Ms type: MS2
Ion mode: NEGATIVE
Ionization: ESI
Collision energy: 40 eV
Precursor m/z: 267.13904
Precursor type: [M-H]-
m/z	relative intensity
93.03449	999
93.04138	46
94.03794	97
98.95537	11
105.03469	12
117.03502	50
119.05018	96
120.05315	13
130.04322	19
131.04998	34
133.06597	353
133.07488	10
134.06948	39
143.04999	92
145.06576	71
157.06618	124
158.06895	18
158.0735	18
159.08162	45
173.09755	70
174.10091	10
194.07479	14
195.08188	33
207.0822	12
209.09702	25
221.06002	26
222.06915	139
223.07001	11
234.06903	14
235.07603	172
236.07737	10
236.08131	13
236.08467	78
237.09232	283
237.1024	26
238.09546	77
249.09151	19
251.10797	165
252.11193	41
252.11928	18
