Mass spectrum: L6; GC-EI-FT; MS; POSITIVE; CE 40 eV
Name: L6
Name: [dimethyl(trimethylsilyloxy)silyl]oxy-[[dimethyl(trimethylsilyloxy)silyl]oxy-dimethylsilyl]oxy-dimethylsilane
Class: Non-Natural Product; Long-chained siloxanes
Formula: C14H42O5Si6
Exact mass: 458.16478364
SMILES: C[Si](C)(C)O[Si](C)(C)O[Si](C)(C)O[Si](C)(C)O[Si](C)(C)O[Si](C)(C)C
InChI: InChI=1S/C14H42O5Si6/c1-20(2,3)15-22(7,8)17-24(11,12)19-25(13,14)18-23(9,10)16-21(4,5)6/h1-14H3
Instrument: Trace 1310 GC, Thermo Scientific; Q Exactive Orbitrap, Thermo Scientific
Instrument type: GC-EI-FT
Ms type: MS
Ion mode: POSITIVE
Collision energy: 40 eV
Retention time: 12.648
Base peak: 221.08432
m/z	relative intensity
55.054306	30
55.269688	10
57.069942	15
59.031212	18
65.038628	12
67.05426	39
69.069908	22
73.046844	886
74.046402	50
74.050186	34
75.026123	10
75.043701	34
76.030792	12
77.038605	27
78.046471	13
79.054268	44
81.069931	42
82.077744	9
83.049179	9
83.085541	17
91.054283	51
91.057411	24
93.069954	21
95.085579	25
97.101234	12
104.025696	18
105.069946	17
109.101227	11
115.054276	20
117.018692	29
117.069901	17
119.085602	10
128.062073	16
129.018265	26
129.069885	13
131.034348	42
131.085587	11
133.013626	34
133.049973	28
141.069855	9
147.065598	759
148.065186	70
148.068939	41
149.023361	48
149.044861	571
149.062393	51
150.044449	54
150.048218	23
151.02417	21
151.041687	39
167.055389	23
185.080811	16
189.021729	15
191.001007	18
191.037369	18
192.980301	12
205.053024	33
205.158569	10
207.032288	54
209.011642	15
221.08432	999
222.083008	122
222.088715	29
223.081223	101
223.087509	10
225.042847	17
239.09494	179
240.093475	20
241.091797	17
248.988525	20
250.967926	14
265.019958	26
266.999176	169
267.998077	30
268.978546	16
268.995941	22
281.051147	196
282.050049	33
283.047882	24
285.009735	60
286.008759	10
299.061646	59
300.060974	10
323.007202	19
339.038513	19
355.069855	94
356.069824	25
357.066101	16
443.140808	14
