Mass spectrum: PFPrS; LC-ESI-FT; MS2; CE 10 eV; [M-H]-
Name: PFPrS
Name: 1,1,2,2,3,3,3-heptafluoropropane-1-sulfonic acid
Class: Non-Natural Product; Short-chained per- and polyfluoroalkyl substances (PFAS)
Formula: C3HF7O3S
Exact mass: 249.95346220
SMILES: C(C(F)(F)F)(C(F)(F)S(=O)(=O)O)(F)F
InChI: InChI=1S/C3HF7O3S/c4-1(5,2(6,7)8)3(9,10)14(11,12)13/h(H,11,12,13)
Instrument: Vanquish LC, Thermo Scientific; Exploris 120 Orbitrap, Thermo Scientific
Instrument type: LC-ESI-FT
Ms type: MS2
Ion mode: NEGATIVE
Collision energy: 10 eV
Retention time: 7.05703625939687
Precursor m/z: 248.94582
Precursor type: [M-H]-
m/z	relative intensity
67.02538	1
79.95332	3
79.96015	2
145.04089	1
180.57635	1
185.42668	1
221.64993	1
229.84154	1
248.94589	999
