Mass spectrum: Bis[2-(4-hydroxyphenylthio)ethoxy]methane; LC-ESI-QTOF; MS2; CE: 40 eV; [M-H]-
Name: Bis[2-(4-hydroxyphenylthio)ethoxy]methane
Name: 44-BPS2
Class: Non-Natural Product; Bisphenol
Formula: C17H20O4S2
Exact mass: 352.0803
SMILES: C1=CC(=CC=C1O)SCCOCOCCSC2=CC=C(C=C2)O
InChI: InChI=1S/C17H20O4S2/c18-14-1-5-16(6-2-14)22-11-9-20-13-21-10-12-23-17-7-3-15(19)4-8-17/h1-8,18-19H,9-13H2
Instrument: AGILENT 6546 LC/QToF
Instrument type: LC-ESI-QTOF
Ms type: MS2
Ion mode: NEGATIVE
Ionization: ESI
Collision energy: 40 eV
Precursor m/z: 351.07303
Precursor type: [M-H]-
m/z	relative intensity
123.99897	999
125.00211	65
125.99466	44
