Mass spectrum: MEHP; LC-ESI-FT; MS2; CE Ramp 10-30 kV; [M-H]-
Name: MEHP
Name: 2-(2-ethylhexoxycarbonyl)benzoic acid
Class: Non-Natural Product; Phthalate metabolite
Formula: C16H22O4
Exact mass: 278.15180918
SMILES: CCCCC(CC)COC(=O)C1=CC=CC=C1C(=O)O
InChI: InChI=1S/C16H22O4/c1-3-5-8-12(4-2)11-20-16(19)14-10-7-6-9-13(14)15(17)18/h6-7,9-10,12H,3-5,8,11H2,1-2H3,(H,17,18)
Instrument: Vanquish LC, Thermo Scientific; Exploris 120 Orbitrap, Thermo Scientific
Instrument type: LC-ESI-FT
Ms type: MS2
Ion mode: NEGATIVE
Collision energy: Ramp 10-30 kV
Retention time: 5.39451537922753
Precursor m/z: 277.14423
Precursor type: [M-H]-
m/z	relative intensity
75.02396	25
107.05016	41
119.01357	10
121.02938	202
127.11268	313
129.12854	16
134.03719	604
135.04495	44
147.00864	82
179.03459	18
205.15955	42
226.69914	16
233.15459	118
277.14447	999
