Mass spectrum: 1,2-Dichloroethylene; GC-EI-QTOF; MS; CE 70 V
Name: 1,2-Dichloroethylene
Name: Dioform
Class: Non-Natural Product
Formula: C2H2Cl2
Exact mass: 95.953
SMILES: Cl/C=C\Cl
InChI: InChI=1S/C2H2Cl2/c3-1-2-4/h1-2H/b2-1-
Instrument: Agilent 7250 GC/QTOF
Instrument type: GC-EI-QTOF
Ms type: MS
Ion mode: POSITIVE
Ionization: EI
Collision energy: 70 V
Retention time: 10.43
m/z	relative intensity
26.0149611510944	31
34.9682913511943	18
43.0179045435167	19
46.9683874631248	21
47.9761391856145	22
55.0543699145284	11
58.9683284621795	13
59.9762347619322	141
60.9841666267439	999
61.973199857384	49
61.9872925540978	21
62.9811283145584	299
86.0725134239364	12
95.9528986208333	494
97.949978110303	303
99.9469133598249	43
