Mass spectrum: 1,1,1-Tris(4-hydroxyphenyl)ethane; LC-ESI-QTOF; MS2; CE: 20 eV; [M-H]-
Name: 1,1,1-Tris(4-hydroxyphenyl)ethane
Name: T4HPE
Class: Non-Natural Product
Formula: C20H18O3
Exact mass: 306.1256
SMILES: CC(C1C=CC(O)=CC=1)(C1C=CC(O)=CC=1)C1C=CC(O)=CC=1
InChI: InChI=1S/C20H18O3/c1-20(14-2-8-17(21)9-3-14,15-4-10-18(22)11-5-15)16-6-12-19(23)13-7-16/h2-13,21-23H,1H3
Instrument: AGILENT 6546 LC/QToF
Instrument type: LC-ESI-QTOF
Ms type: MS2
Ion mode: NEGATIVE
Ionization: ESI
Collision energy: 20 eV
Precursor m/z: 305.11832
Precursor type: [M-H]-
m/z	relative intensity
211.0765	140
211.08641	11
212.07996	15
289.08693	56
290.0948	998
290.10688	49
291.09811	222
291.10919	15
292.10066	35
305.11825	999
305.13077	52
306.12131	266
306.13426	17
307.12433	42
