Mass spectrum: PFHpA; LC-ESI-FT; MS2; CE 10 eV; [M-H]-
Name: PFHpA
Name: 2,2,3,3,4,4,5,5,6,6,7,7,7-tridecafluoroheptanoic acid
Class: Non-Natural Product; Perfluoroalkyl carboxylic acid
Formula: C7HF13O2
Exact mass: 363.9768954
SMILES: C(=O)(C(C(C(C(C(C(F)(F)F)(F)F)(F)F)(F)F)(F)F)(F)F)O
InChI: InChI=1S/C7HF13O2/c8-2(9,1(21)22)3(10,11)4(12,13)5(14,15)6(16,17)7(18,19)20/h(H,21,22)
Instrument: Vanquish LC, Thermo Scientific; Exploris 120 Orbitrap, Thermo Scientific
Instrument type: LC-ESI-FT
Ms type: MS2
Ion mode: NEGATIVE
Collision energy: 10 eV
Retention time: 5.61165051720937
Precursor m/z: 362.96967
Precursor type: [M-H]-
m/z	relative intensity
56.46920	128
57.27206	139
59.01390	297
68.48391	160
137.09843	159
201.89798	122
226.69946	471
280.95804	243
294.63547	125
318.98007	999
355.85532	128
