Mass spectrum: 6:2-FTSA; LC-ESI-FT; MS2; CE 10 eV; [M-H]-
Name: 6:2-FTSA
Name: 3,3,4,4,5,5,6,6,7,7,8,8,8-tridecafluorooctane-1-sulfonic acid
Class: Non-Natural Product; Per- and polyfluoroalkyl substances
Formula: C8H5F13O3S
Exact mass: 427.9751813
SMILES: C(CS(=O)(=O)O)C(C(C(C(C(C(F)(F)F)(F)F)(F)F)(F)F)(F)F)(F)F
InChI: InChI=1S/C8H5F13O3S/c9-3(10,1-2-25(22,23)24)4(11,12)5(13,14)6(15,16)7(17,18)8(19,20)21/h1-2H2,(H,22,23,24)
Instrument: Vanquish LC, Thermo Scientific; Exploris 120 Orbitrap, Thermo Scientific
Instrument type: LC-ESI-FT
Ms type: MS2
Ion mode: NEGATIVE
Collision energy: 10 eV
Retention time: 6.01335249340269
Precursor m/z: 426.96774
Precursor type: [M-H]-
m/z	relative intensity
226.69942	10
426.96765	999
