Mass spectrum: Jasmone; GC-EI-FT; MS; POSITIVE; CE 40 eV
Name: Jasmone
Name: 3-methyl-2-pent-2-enylcyclopent-2-en-1-one
Class: Non-Natural Product; Semi-volatile organic contaminants (SVOCs)
Formula: C11H16O
Exact mass: 164.120115130
SMILES: CCC=CCC1=C(CCC1=O)C
InChI: InChI=1S/C11H16O/c1-3-4-5-6-10-9(2)7-8-11(10)12/h4-5H,3,6-8H2,1-2H3
Instrument: Trace 1310 GC, Thermo Scientific; Q Exactive Orbitrap, Thermo Scientific
Instrument type: GC-EI-FT
Ms type: MS
Ion mode: POSITIVE
Collision energy: 40 eV
Retention time: 8.33
Base peak: 131.085556
m/z	relative intensity
53.038727	18
55.01799	23
55.054371	21
65.038651	89
66.046486	26
67.054298	194
77.038589	383
78.042015	28
78.046486	76
79.054276	841
80.05764	71
80.062111	78
81.069931	244
82.073303	17
82.077766	98
89.038643	16
91.054245	732
92.05764	67
92.062111	26
93.033585	42
93.069901	498
94.041397	44
94.073318	43
94.077789	43
95.049187	263
95.085609	18
96.052551	22
103.054298	60
104.062111	23
105.044823	22
105.069923	321
106.073318	29
107.049194	224
107.085571	276
108.052559	24
108.057045	30
108.088951	24
109.064857	299
110.068245	26
110.072632	496
111.076057	38
115.054314	115
116.062134	38
117.069946	90
119.04924	20
119.08564	55
120.057053	17
120.09346	20
121.064812	399
121.101265	63
122.068298	35
122.072624	963
123.076042	110
123.080521	56
128.062119	24
129.069962	72
131.085556	999
132.088989	120
133.064896	72
135.080429	703
136.083923	61
136.088348	293
137.091721	28
145.101273	46
146.109085	147
147.080536	21
147.116928	29
149.096085	909
150.099548	102
164.119629	283
165.123047	30
