Mass spectrum: DIBROMOMETHANE; GC-EI-QTOF; MS; CE 70 V
Name: DIBROMOMETHANE
Name: Methane, dibromo-
Class: Non-Natural Product
Formula: CH2Br2
Exact mass: 171.852324264
SMILES: BrCBr
InChI: InChI=1S/CH2Br2/c2-1-3/h1H2
Instrument: Agilent 7250 GC/QTOF
Instrument type: GC-EI-QTOF
Ms type: MS
Ion mode: POSITIVE
Ionization: EI
Collision energy: 70 V
Retention time: 16.52
m/z	relative intensity
28.0054781879227	28
31.9891824436597	18
39.0229732279303	23
41.0385703991584	48
48.9841694030126	10
71.0492670274218	134
74.9993141637712	21
78.9177362952094	92
79.9255085788996	18
80.9155945328691	88
81.9237952671781	18
90.9174671129992	110
91.9251714904941	38
92.9156249970004	107
92.9333573104583	999
93.9239357220773	42
93.9371515117281	14
94.9312686017706	921
95.9344836766995	10
159.833460310859	17
171.851039312057	234
173.848998185727	480
173.894639083217	11
175.847049440243	223
