Mass spectrum: N-EtFOSAA; LC-ESI-FT; MS2; CE 10 eV; [M-H]-
Name: N-EtFOSAA
Name: 2-[ethyl(1,1,2,2,3,3,4,4,5,5,6,6,7,7,8,8,8-heptadecafluorooctylsulfonyl)amino]acetic acid
Class: Non-Natural Product; Per- and polyfluoroalkyl substances
Formula: C12H8F17NO4S
Exact mass: 584.9902577
SMILES: CCN(CC(=O)O)S(=O)(=O)C(C(C(C(C(C(C(C(F)(F)F)(F)F)(F)F)(F)F)(F)F)(F)F)(F)F)(F)F
InChI: InChI=1S/C12H8F17NO4S/c1-2-30(3-4(31)32)35(33,34)12(28,29)10(23,24)8(19,20)6(15,16)5(13,14)7(17,18)9(21,22)11(25,26)27/h2-3H2,1H3,(H,31,32)
Instrument: Vanquish LC, Thermo Scientific; Exploris 120 Orbitrap, Thermo Scientific
Instrument type: LC-ESI-FT
Ms type: MS2
Ion mode: NEGATIVE
Collision energy: 10 eV
Retention time: 7.60926272335052
Precursor m/z: 583.98334
Precursor type: [M-H]-
m/z	relative intensity
418.97385	23
482.93536	75
525.97797	39
583.98328	999
