Mass spectrum: chlorzoxazone; GC-EI-FT; MS; POSITIVE; CE 40 eV
Name: chlorzoxazone
Name: 5-chloro-3H-1,3-benzoxazol-2-one
Class: Non-Natural Product; Semi-volatile organic contaminants (SVOCs)
Formula: C7H4ClNO2
Exact mass: 168.9930561
SMILES: C1=CC2=C(C=C1Cl)NC(=O)O2
InChI: InChI=1S/C7H4ClNO2/c8-4-1-2-6-5(3-4)9-7(10)11-6/h1-3H,(H,9,10)
Instrument: Trace 1310 GC, Thermo Scientific; Q Exactive Orbitrap, Thermo Scientific
Instrument type: GC-EI-FT
Ms type: MS
Ion mode: POSITIVE
Collision energy: 40 eV
Retention time: 10.525
Base peak: 168.992401
m/z	relative intensity
63.022953	36
69.069916	35
76.018181	74
78.033836	254
91.05423	49
113.002625	468
114.999672	174
168.992401	999
169.995789	83
170.989395	330
