Mass spectrum: MBzP; LC-ESI-FT; MS2; CE Ramp 10-30 kV; [M-H]-
Name: MBzP
Name: 2-phenylmethoxycarbonylbenzoic acid
Class: Non-Natural Product; Phthalate metabolite
Formula: C15H12O4
Exact mass: 256.07355886
SMILES: C1=CC=C(C=C1)COC(=O)C2=CC=CC=C2C(=O)O
InChI: InChI=1S/C15H12O4/c16-14(17)12-8-4-5-9-13(12)15(18)19-10-11-6-2-1-3-7-11/h1-9H,10H2,(H,16,17)
Instrument: Vanquish LC, Thermo Scientific; Exploris 120 Orbitrap, Thermo Scientific
Instrument type: LC-ESI-FT
Ms type: MS2
Ion mode: NEGATIVE
Collision energy: Ramp 10-30 kV
Retention time: 4.40252833428383
Precursor m/z: 255.06638
Precursor type: [M-H]-
m/z	relative intensity
107.05004	999
