Mass spectrum: 7:3-FTCA; LC-ESI-FT; MS2; CE 20 eV; [M-H]-
Name: 7:3-FTCA
Name: 4,4,5,5,6,6,7,7,8,8,9,9,10,10,10-pentadecafluorodecanoic acid
Class: Non-Natural Product; Per- and polyfluoroalkyl substances
Formula: C10H5F15O2
Exact mass: 442.0050018
SMILES: C(CC(C(C(C(C(C(C(F)(F)F)(F)F)(F)F)(F)F)(F)F)(F)F)(F)F)C(=O)O
InChI: InChI=1S/C10H5F15O2/c11-4(12,2-1-3(26)27)5(13,14)6(15,16)7(17,18)8(19,20)9(21,22)10(23,24)25/h1-2H2,(H,26,27)
Instrument: Vanquish LC, Thermo Scientific; Exploris 120 Orbitrap, Thermo Scientific
Instrument type: LC-ESI-FT
Ms type: MS2
Ion mode: NEGATIVE
Collision energy: 20 eV
Retention time: 6.46249468984604
Precursor m/z: 440.99799
Precursor type: [M-H]-
m/z	relative intensity
62.98865	92
266.98596	51
316.98297	999
336.98926	412
