Mass spectrum: PFMeS; LC-ESI-FT; MS2; CE 10 eV; [M-H]-
Name: PFMeS
Name: trifluoromethanesulfonic acid
Class: Non-Natural Product; Short-chained per- and polyfluoroalkyl substances (PFAS)
Formula: CHF3O3S
Exact mass: 149.95984955
SMILES: C(F)(F)(F)S(=O)(=O)O
InChI: InChI=1S/CHF3O3S/c2-1(3,4)8(5,6)7/h(H,5,6,7)
Instrument: Vanquish LC, Thermo Scientific; Exploris 120 Orbitrap, Thermo Scientific
Instrument type: LC-ESI-FT
Ms type: MS2
Ion mode: NEGATIVE
Collision energy: 10 eV
Retention time: 8.37224751772881
Precursor m/z: 148.95227
Precursor type: [M-H]-
m/z	relative intensity
79.95709	16
82.96075	2
83.36767	1
98.95571	2
148.95232	999
