Mass spectrum: 4,4-METHYLENE BIS(2,6-DI-TERT-BUTYLPHENOL); LC-ESI-QTOF; MS2; CE: 40 eV; [M-H]-
Name: 4,4'-METHYLENE BIS(2,6-DI-TERT-BUTYLPHENOL)
Name: 2,6-ditert-butyl-4-[(3,5-ditert-butyl-4-hydroxy-phenyl)methyl]phenol
Class: Non-Natural Product; Bisphenol
Formula: C29H44O2
Exact mass: 424.334130648
SMILES: CC(C)(C)C1=CC(CC2=CC(=C(O)C(=C2)C(C)(C)C)C(C)(C)C)=CC(=C1O)C(C)(C)C
InChI: InChI=1S/C29H44O2/c1-26(2,3)20-14-18(15-21(24(20)30)27(4,5)6)13-19-16-22(28(7,8)9)25(31)23(17-19)29(10,11)12/h14-17,30-31H,13H2,1-12H3
Instrument: AGILENT 6546 LC/QToF
Instrument type: LC-ESI-QTOF
Ms type: MS2
Ion mode: NEGATIVE
Ionization: ESI
Collision energy: 40 eV
Precursor m/z: 423.3269
Precursor type: [M-H]-
m/z	relative intensity
79.95727	90
80.96495	10
94.98063	15
95.95224	25
96.96012	999
96.96722	30
98.95594	18
102.05612	16
122.97583	86
167.00221	10
425.25772	596
425.27149	42
426.2613	137
427.2535	15
427.26436	15
