Mass spectrum: 2-Methyl-9,10-AnthraQuinone; GC-EI-FT; MS; POSITIVE; CE 40 eV
Name: 2-Methyl-9,10-AnthraQuinone
Name: 2-methylanthracene-9,10-dione
Name: MAQ
Class: Non-Natural Product; Semi-volatile organic contaminants (SVOCs)
Formula: C15H10O2
Exact mass: 222.068079557
SMILES: CC1=CC2=C(C=C1)C(=O)C3=CC=CC=C3C2=O
InChI: InChI=1S/C15H10O2/c1-9-6-7-12-13(8-9)15(17)11-5-3-2-4-10(11)14(12)16/h2-8H,1H3
Instrument: Trace 1310 GC, Thermo Scientific; Q Exactive Orbitrap, Thermo Scientific
Instrument type: GC-EI-FT
Ms type: MS
Ion mode: POSITIVE
Collision energy: 40 eV
Retention time: 15.397
Base peak: 158.966522
m/z	relative intensity
75.022949	15
76.030762	17
81.52684	26
82.534645	30
87.022934	14
89.038544	44
96.033791	48
113.038536	21
115.054207	56
137.038574	15
139.054138	105
140.057556	15
150.046371	39
151.054169	42
162.046326	29
163.054031	221
164.057571	33
164.061844	236
165.065384	35
165.069778	999
166.073105	144
166.07753	211
167.080994	32
179.049072	30
193.064682	114
194.068085	20
194.072403	286
195.075928	42
207.043961	110
207.055237	20
208.047379	15
221.059647	80
222.067352	513
223.070847	83
