Mass spectrum: PFBS; LC-ESI-FT; MS2; CE 10 eV; [M-H]-
Name: PFBS
Name: 1,1,2,2,3,3,4,4,4-nonafluorobutane-1-sulfonic acid
Class: Non-Natural Product; Perfluoroalkyl sulfonic acid
Formula: C4HF9O3S
Exact mass: 299.95026852
SMILES: C(C(C(F)(F)S(=O)(=O)O)(F)F)(C(F)(F)F)(F)F
InChI: InChI=1S/C4HF9O3S/c5-1(6,3(9,10)11)2(7,8)4(12,13)17(14,15)16/h(H,14,15,16)
Instrument: Vanquish LC, Thermo Scientific; Exploris 120 Orbitrap, Thermo Scientific
Instrument type: LC-ESI-FT
Ms type: MS2
Ion mode: NEGATIVE
Collision energy: 10 eV
Retention time: 4.85329758388201
Precursor m/z: 298.94299
Precursor type: [M-H]-
m/z	relative intensity
298.94299	999
