Mass spectrum: 4,4-(1,3,3,3-Trimethyl-1-propene-1,3-diyl)bisphenol; ESI-QTOF; MS2; CE: 20 eV; [M-H]-
Name: 4,4-(1,3,3,3-Trimethyl-1-propene-1,3-diyl)bisphenol
Name: TMBP
Class: Non-Natural Product; Bisphenol
Formula: C18H20O2
Exact mass: 268.14633
SMILES: CC(=CC(C)(C)C1=CC=C(C=C1)O)C2=CC=C(C=C2)O
InChI: InChI=1S/C18H20O2/c1-13(14-4-8-16(19)9-5-14)12-18(2,3)15-6-10-17(20)11-7-15/h4-12,19-20H,1-3H3
Instrument: AGILENT 6546 LC/QToF
Instrument type: LC-ESI-QTOF
Ms type: MS2
Ion mode: NEGATIVE
Ionization: ESI
Collision energy: 20 eV
Precursor m/z: 267.13904
Precursor type: [M-H]-
m/z	relative intensity
93.03443	173
94.03799	16
133.06593	30
173.09715	36
237.09231	25
251.10774	24
252.11563	555
252.12708	30
253.11907	153
254.122	17
267.13911	999
267.15059	53
268.14257	297
268.15428	19
269.14584	32
