Mass spectrum: PFTeDA; LC-ESI-FT; MS2; CE 20 eV; [M-H]-
Name: PFTeDA
Name: 2,2,3,3,4,4,5,5,6,6,7,7,8,8,9,9,10,10,11,11,12,12,13,13,14,14,14-heptacosafluorotetradecanoic acid
Class: Non-Natural Product; Per- and polyfluoroalkyl substances
Formula: C14HF27O2
Exact mass: 713.9545396
SMILES: C(=O)(C(C(C(C(C(C(C(C(C(C(C(C(C(F)(F)F)(F)F)(F)F)(F)F)(F)F)(F)F)(F)F)(F)F)(F)F)(F)F)(F)F)(F)F)(F)F)O
InChI: InChI=1S/C14HF27O2/c15-2(16,1(42)43)3(17,18)4(19,20)5(21,22)6(23,24)7(25,26)8(27,28)9(29,30)10(31,32)11(33,34)12(35,36)13(37,38)14(39,40)41/h(H,42,43)
Instrument: Vanquish LC, Thermo Scientific; Exploris 120 Orbitrap, Thermo Scientific
Instrument type: LC-ESI-FT
Ms type: MS2
Ion mode: NEGATIVE
Collision energy: 20 eV
Retention time: 8.42360555094878
Precursor m/z: 712.94781
Precursor type: [M-H]-
m/z	relative intensity
118.99248	14
168.98909	244
218.98596	289
226.71233	19
268.98297	270
318.97977	290
368.97635	271
418.97281	212
468.97012	113
668.95721	999
