Mass spectrum: 1,1,1-Tris(4-hydroxyphenyl)ethane; LC-ESI-QTOF; MS2; CE: 10 eV; [M-H]-
Name: 1,1,1-Tris(4-hydroxyphenyl)ethane
Name: T4HPE
Class: Non-Natural Product
Formula: C20H18O3
Exact mass: 306.1256
SMILES: CC(C1C=CC(O)=CC=1)(C1C=CC(O)=CC=1)C1C=CC(O)=CC=1
InChI: InChI=1S/C20H18O3/c1-20(14-2-8-17(21)9-3-14,15-4-10-18(22)11-5-15)16-6-12-19(23)13-7-16/h2-13,21-23H,1H3
Instrument: AGILENT 6546 LC/QToF
Instrument type: LC-ESI-QTOF
Ms type: MS2
Ion mode: NEGATIVE
Ionization: ESI
Collision energy: 10 eV
Precursor m/z: 305.11832
Precursor type: [M-H]-
m/z	relative intensity
290.09471	77
291.09841	12
305.11835	999
305.12973	25
306.12151	270
306.1335	17
307.12432	39
