Mass spectrum: FOSAA; LC-ESI-FT; MS2; CE 10 eV; [M-H]-
Name: FOSAA
Name: 2-(1,1,2,2,3,3,4,4,5,5,6,6,7,7,8,8,8-heptadecafluorooctylsulfonylamino)acetic acid
Class: Non-Natural Product; Per- and polyfluoroalkyl substances
Formula: C10H4F17NO4S
Exact mass: 556.9589575
SMILES: C(C(=O)O)NS(=O)(=O)C(C(C(C(C(C(C(C(F)(F)F)(F)F)(F)F)(F)F)(F)F)(F)F)(F)F)(F)F
InChI: InChI=1S/C10H4F17NO4S/c11-3(12,5(15,16)7(19,20)9(23,24)25)4(13,14)6(17,18)8(21,22)10(26,27)33(31,32)28-1-2(29)30/h28H,1H2,(H,29,30)
Instrument: Vanquish LC, Thermo Scientific; Exploris 120 Orbitrap, Thermo Scientific
Instrument type: LC-ESI-FT
Ms type: MS2
Ion mode: NEGATIVE
Collision energy: 10 eV
Retention time: 7.11263278983434
Precursor m/z: 555.95178
Precursor type: [M-H]-
m/z	relative intensity
555.95184	999
