Mass spectrum: 1-Propene, 1,3-dichloro-, (Z)-; GC-EI-QTOF; MS; CE 70 V
Name: 1-Propene, 1,3-dichloro-, (Z)-
Name: cis-1,3-Dichloro-1-propene
Class: Non-Natural Product
Formula: C3H4Cl2
Exact mass: 109.969
SMILES: Cl/C=C\CCl
InChI: InChI=1S/C3H4Cl2/c4-2-1-3-5/h1-2H,3H2/b2-1-
Instrument: Agilent 7250 GC/QTOF
Instrument type: GC-EI-QTOF
Ms type: MS
Ion mode: POSITIVE
Ionization: EI
Collision energy: 70 V
Retention time: 18.61
m/z	relative intensity
37.0071650631601	40
38.015000848073	61
39.0229747247282	433
40.0266785817629	12
46.9682298038469	17
47.9761897033822	14
48.9840419121915	129
50.9810836078376	44
60.9839851296917	12
72.9840767045705	30
74.9813303019057	10
74.9997756232839	999
76.0029261231725	26
76.9967437790267	299
82.9449505639587	12
108.960743496472	11
109.968380939647	121
111.965536532831	85
113.96245838701	12
