Mass spectrum: PFBA; LC-ESI-FT; MS2; CE 20 eV; [M-H]-
Name: PFBA
Name: 2,2,3,3,4,4,4-heptafluorobutanoic acid
Class: Non-Natural Product; Short-chained per- and polyfluoroalkyl substances (PFAS)
Formula: C4HF7O2
Exact mass: 213.98647640
SMILES: C(=O)(C(C(C(F)(F)F)(F)F)(F)F)O
InChI: InChI=1S/C4HF7O2/c5-2(6,1(12)13)3(7,8)4(9,10)11/h(H,12,13)
Instrument: Vanquish LC, Thermo Scientific; Exploris 120 Orbitrap, Thermo Scientific
Instrument type: LC-ESI-FT
Ms type: MS2
Ion mode: NEGATIVE
Collision energy: 20 eV
Retention time: 9.01617599986394
Precursor m/z: 212.97917
Precursor type: [M-H]-
m/z	relative intensity
55.01514	45
57.50365	47
61.20178	47
81.74496	60
118.29384	52
121.14887	57
163.22360	51
168.98906	999
195.58600	43
