Mass spectrum: Tetrabromobisphenol A; LC-ESI-QTOF; MS2; CE: 10 eV; [M-H]- 
Name: Tetrabromobisphenol A
Name: 3,3',5,5'-Tetrabromobisphenol A
Class: Non-Natural Product; Bisphenol
Formula: C15H12Br4O2
Exact mass: 539.75708
SMILES: CC(C)(C1=CC(Br)=C(O)C(Br)=C1)C1=CC(Br)=C(O)C(Br)=C1
InChI: InChI=1S/C15H12Br4O2/c1-15(2,7-3-9(16)13(20)10(17)4-7)8-5-11(18)14(21)12(19)6-8/h3-6,20-21H,1-2H3
Instrument: AGILENT 6546 LC/QToF
Instrument type: LC-ESI-QTOF
Ms type: MS2
Ion mode: NEGATIVE
Ionization: ESI
Collision energy: 10 eV
Precursor m/z: 538.7511
Precursor type: [M-H]-
m/z	relative intensity
542.74547	999
542.76084	82
543.74874	191
543.76771	15
544.74313	722
544.75842	45
545.74697	126
545.76115	11
546.74129	82
