Mass spectrum: L7; GC-EI-FT; MS; POSITIVE; CE 40 eV
Name: L7
Name: bis[[[dimethyl(trimethylsilyloxy)silyl]oxy-dimethylsilyl]oxy]-dimethylsilane
Class: Non-Natural Product; Long-chained siloxanes
Formula: C16H48O6Si7
Exact mass: 532.18357499
SMILES: C[Si](C)(C)O[Si](C)(C)O[Si](C)(C)O[Si](C)(C)O[Si](C)(C)O[Si](C)(C)O[Si](C)(C)C
InChI: InChI=1S/C16H48O6Si7/c1-23(2,3)17-25(7,8)19-27(11,12)21-29(15,16)22-28(13,14)20-26(9,10)18-24(4,5)6/h1-16H3
Instrument: Trace 1310 GC, Thermo Scientific; Q Exactive Orbitrap, Thermo Scientific
Instrument type: GC-EI-FT
Ms type: MS
Ion mode: POSITIVE
Collision energy: 40 eV
Retention time: 14.644
Base peak: 221.084396
m/z	relative intensity
55.054317	18
55.269711	11
57.069973	10
59.031231	14
65.038628	9
67.054276	28
69.069939	17
73.046867	672
74.046425	37
74.050217	20
75.026154	8
75.043724	25
76.030823	9
77.03862	19
78.046494	8
79.054298	37
81.069954	32
82.077766	7
83.085587	13
91.054306	39
91.057434	18
93.069977	14
95.085602	18
97.101288	8
104.025726	12
105.069969	13
111.007759	7
115.054306	16
117.018723	17
117.069931	15
119.085602	8
121.101273	8
128.062149	10
129.018311	22
129.069931	12
131.034393	32
131.070801	7
131.085602	8
133.013657	28
133.050049	16
139.00267	8
141.069962	9
145.086365	11
147.065628	441
148.065201	44
148.068954	23
149.023422	38
149.044907	336
149.062439	28
150.044479	31
150.048233	12
151.024216	20
151.041733	23
165.069962	7
167.055481	13
185.080795	12
189.021759	10
191.001038	18
191.03743	19
192.980377	7
205.053131	29
205.15863	7
207.032349	236
208.031509	33
209.011627	34
209.029144	23
221.084396	999
222.083084	121
222.08876	26
223.06395	8
223.081314	102
223.08757	12
225.042953	112
226.042023	15
227.039581	10
239.095016	165
240.093552	21
241.091904	15
248.988724	8
265.019928	13
265.056396	7
266.999268	67
267.99826	13
268.996094	8
279.072021	18
281.051208	48
282.049835	7
283.048126	7
285.009796	24
295.10321	83
296.102386	16
297.099976	10
299.061829	14
324.986603	58
325.986084	13
326.983124	11
339.038696	9
341.017914	76
342.017578	19
343.014099	13
355.070007	73
356.069794	21
357.066193	11
359.028564	17
