Mass spectrum: ACETONITRILE; GC-EI-QTOF; MS; CE 70 V
Name: ACETONITRILE
Name: METHYL CYANIDE
Class: Non-Natural Product; Solvent
Formula: C2H3N
Exact mass: 41.026549096
SMILES: CC#N
InChI: InChI=1S/C2H3N/c1-2-3/h1H3
Instrument: Agilent 7250 GC/QTOF
Instrument type: GC-EI-QTOF
Ms type: MS
Ion mode: POSITIVE
Ionization: EI
Collision energy: 70 V
Retention time: 8.33
m/z	relative intensity
38.0025551121359	71
39.0103582104549	142
40.0181953650113	469
41.0259726331016	999
42.0293759002665	20
