Mass spectrum: PFBS; LC-ESI-FT; MS2; CE 20 eV; [M-H]-
Name: PFBS
Name: 1,1,2,2,3,3,4,4,4-nonafluorobutane-1-sulfonic acid
Class: Non-Natural Product; Short-chained per- and polyfluoroalkyl substances (PFAS)
Formula: C4HF9O3S
Exact mass: 299.95026852
SMILES: C(C(C(F)(F)S(=O)(=O)O)(F)F)(C(F)(F)F)(F)F
InChI: InChI=1S/C4HF9O3S/c5-1(6,3(9,10)11)2(7,8)4(12,13)17(14,15)16/h(H,14,15,16)
Instrument: Vanquish LC, Thermo Scientific; Exploris 120 Orbitrap, Thermo Scientific
Instrument type: LC-ESI-FT
Ms type: MS2
Ion mode: NEGATIVE
Collision energy: 20 eV
Retention time: 6.6884601738294
Precursor m/z: 298.94272
Precursor type: [M-H]-
m/z	relative intensity
79.95718	100
82.96066	10
84.99091	1
92.37631	1
98.95553	49
106.07396	1
118.99229	4
127.78828	1
168.98874	9
218.98633	3
233.32375	1
298.94269	999
