Mass spectrum: PFHpA; LC-ESI-FT; MS2; CE 20 eV; [M-H]-
Name: PFHpA
Name: 2,2,3,3,4,4,5,5,6,6,7,7,7-tridecafluoroheptanoic acid
Class: Non-Natural Product; Per- and polyfluoroalkyl substances
Formula: C7HF13O2
Exact mass: 363.9768954
SMILES: C(=O)(C(C(C(C(C(C(F)(F)F)(F)F)(F)F)(F)F)(F)F)(F)F)O
InChI: InChI=1S/C7HF13O2/c8-2(9,1(21)22)3(10,11)4(12,13)5(14,15)6(16,17)7(18,19)20/h(H,21,22)
Instrument: Vanquish LC, Thermo Scientific; Exploris 120 Orbitrap, Thermo Scientific
Instrument type: LC-ESI-FT
Ms type: MS2
Ion mode: NEGATIVE
Collision energy: 20 eV
Retention time: 5.7386305861579
Precursor m/z: 362.96985
Precursor type: [M-H]-
m/z	relative intensity
62.98855	999
