Mass spectrum: 4-Dodecylphenol; LC-ESI-QTOF; MS2; CE: 40 eV; [M-H]-
Name: 4-Dodecylphenol
Name: p-Dodecylphenol
Class: Non-Natural Product
Formula: C18H30O
Exact mass: 262.22967
SMILES: CCCCCCCCCCCCC1=CC=C(C=C1)O
InChI: InChI=1S/C18H30O/c1-2-3-4-5-6-7-8-9-10-11-12-17-13-15-18(19)16-14-17/h13-16,19H,2-12H2,1H3
Instrument: AGILENT 6546 LC/QToF
Instrument type: LC-ESI-QTOF
Ms type: MS2
Ion mode: NEGATIVE
Ionization: ESI
Collision energy: 40 eV
Precursor m/z: 261.22238
Precursor type: [M-H]-
m/z	relative intensity
59.01503	29
61.98766	28
76.97115	28
77.0399	29
79.95706	81
95.95232	31
96.95988	999
106.0426	747
107.04623	163
107.0485	41
107.05011	64
118.96224	45
119.03676	64
119.05022	210
120.05327	33
121.05533	36
123.08216	30
124.08666	33
131.35736	24
133.06499	48
133.06754	41
137.02419	33
138.89989	32
159.98285	37
161.09608	50
163.0246	33
175.07682	30
187.02162	42
189.05783	27
194.95523	40
205.15899	71
233.07191	34
261.22003	152
262.22706	34
272.32233	33
399.26477	29
607.97672	86
713.76568	24
1069.30719	30
