Mass spectrum: PFPeA; LC-ESI-FT; MS2; CE 10 eV; [M-H]-
Name: PFPeA
Name: 2,2,3,3,4,4,5,5,5-nonafluoropentanoic acid
Class: Non-Natural Product; Short-chained per- and polyfluoroalkyl substances (PFAS)
Formula: C5HF9O2
Exact mass: 263.98328273
SMILES: C(=O)(C(C(C(C(F)(F)F)(F)F)(F)F)(F)F)O
InChI: InChI=1S/C5HF9O2/c6-2(7,1(15)16)3(8,9)4(10,11)5(12,13)14/h(H,15,16)
Instrument: Vanquish LC, Thermo Scientific; Exploris 120 Orbitrap, Thermo Scientific
Instrument type: LC-ESI-FT
Ms type: MS2
Ion mode: NEGATIVE
Collision energy: 10 eV
Retention time: 8.3630976424853
Precursor m/z: 262.97568
Precursor type: [M-H]-
m/z	relative intensity
61.94729	1
62.98853	1
72.53176	1
80.05257	1
81.31621	1
177.98595	1
195.04993	10
196.98402	9
218.98581	999
262.97559	66
263.01208	2
