Mass spectrum: 2-Chlorotrityl chloride; GC-EI-FT; MS; POSITIVE; CE 40 eV
Name: 2-Chlorotrityl chloride
Name: 1-chloro-2-[chloro(diphenyl)methyl]benzene
Name: CTC
Class: Non-Natural Product; Semi-volatile organic contaminants (SVOCs)
Formula: C19H14Cl2
Exact mass: 312.0472558
SMILES: C1=CC=C(C=C1)C(C2=CC=CC=C2)(C3=CC=CC=C3Cl)Cl
InChI: InChI=1S/C19H14Cl2/c20-18-14-8-7-13-17(18)19(21,15-9-3-1-4-10-15)16-11-5-2-6-12-16/h1-14H
Instrument: Trace 1310 GC, Thermo Scientific; Q Exactive Orbitrap, Thermo Scientific
Instrument type: GC-EI-FT
Ms type: MS
Ion mode: POSITIVE
Collision energy: 40 eV
Retention time: 15.878
Base peak: 138.994522
m/z	relative intensity
67.054276	28
74.015152	33
75.02298	71
76.030792	63
77.038567	339
78.041992	23
78.046455	35
79.054268	36
81.069939	29
91.054268	97
93.069946	27
95.049179	55
105.033524	809
105.044785	105
105.069946	37
106.036903	64
110.999664	44
113.038612	29
115.054283	94
117.069923	36
118.534752	23
119.085602	26
119.542564	38
126.046463	35
128.062088	63
129.069901	33
130.991562	25
138.994522	999
139.005768	230
139.054276	35
139.99791	78
140.991547	321
141.002823	73
141.069916	22
141.99498	24
150.046417	42
151.054276	60
152.062012	328
153.065445	41
153.06987	147
154.077667	335
155.060379	23
155.0811	37
155.08551	180
156.088928	21
163.054214	63
164.062012	59
165.069839	305
166.073273	47
166.077698	23
167.085556	23
179.060364	27
181.064743	176
182.068176	25
182.072647	56
183.080383	334
184.083817	48
189.069839	22
207.032349	57
215.085571	23
216.033691	36
217.041458	248
218.044876	35
219.038544	86
225.042938	41
226.077744	31
237.069931	24
239.085571	99
241.101227	47
294.08075	56
