Mass spectrum: Bisphenol-AP-AF ; LC-ESI-QTOF; MS2; CE: 10 eV; [M-H]- 
Name: Bisphenol AP AF 
Name: BAHF (BIS TMC)
Class: Non-Natural Product; Bisphenol
Formula: C15H12F6N2O2
Exact mass: 366.0803
SMILES: C1=CC(=C(C=C1C(C2=CC(=C(C=C2)O)N)(C(F)(F)F)C(F)(F)F)N)O
InChI: InChI=1S/C15H12F6N2O2/c16-14(17,18)13(15(19,20)21,7-1-3-11(24)9(22)5-7)8-2-4-12(25)10(23)6-8/h1-6,24-25H,22-23H2
Instrument: AGILENT 6546 LC/QToF
Instrument type: LC-ESI-QTOF
Ms type: MS2
Ion mode: NEGATIVE
Ionization: ESI
Collision energy: 10 eV
Precursor m/z: 365.07303
Precursor type: [M-H]-
m/z	relative intensity
62.10262	10
74.02401	11
95.04999	18
97.02672	10
152.04971	11
155.0726	11
157.12175	15
227.12889	10
235.13269	18
240.07903	13
261.18839	10
265.04704	11
275.0646	15
295.07023	253
296.03158	18
296.07455	13
304.18957	13
321.15446	11
321.20688	13
348.87249	11
350.1061	15
356.52327	13
364.99448	23
365.02649	320
365.05639	27
365.07324	999
365.08365	65
365.23044	13
366.02764	87
366.07658	184
366.09047	15
367.00563	13
367.03287	19
367.07993	24
367.17881	34
367.20774	51
368.18212	10
368.21311	19
368.24413	12
369.11246	10
369.17194	17
369.19236	16
369.22936	34
400.86676	19
538.37859	10
556.8445	12
600.62553	13
860.16619	11
886.29085	25
917.05919	13
922.97996	10
1188.48948	10
