Mass spectrum: XYLENOL; LC-ESI-QTOF; MS2; CE: 20 eV; [M-H]-
Name: XYLENOL
Name: TMBPF
Class: Non-Natural Product; Bisphenol
Formula: C17H20O2
Exact mass: 256.14633
SMILES: CC1=CC(=CC(=C1O)C)CC2=CC(=C(C(=C2)C)O)C
InChI: InChI=1S/C17H20O2/c1-10-5-14(6-11(2)16(10)18)9-15-7-12(3)17(19)13(4)8-15/h5-8,18-19H,9H2,1-4H3
Instrument: AGILENT 6546 LC/QToF
Instrument type: LC-ESI-QTOF
Ms type: MS2
Ion mode: NEGATIVE
Ionization: ESI
Collision energy: 20 eV
Precursor m/z: 255.13905
Precursor type: [M-H]-
m/z	relative intensity
105.0711	14
121.06584	26
133.0658	14
253.12335	12
255.13891	999
255.1503	52
256.14223	263
256.15308	17
257.1457	38
257.21175	33
