Mass spectrum: 4-Dodecylphenol; LC-ESI-QTOF; MS2; CE: 20 eV; [M-H]- 
Name: 4-Dodecylphenol
Name: p-Dodecylphenol
Class: Non-Natural Product
Formula: C18H30O
Exact mass: 262.22967
SMILES: CCCCCCCCCCCCC1=CC=C(C=C1)O
InChI: InChI=1S/C18H30O/c1-2-3-4-5-6-7-8-9-10-11-12-17-13-15-18(19)16-14-17/h13-16,19H,2-12H2,1H3
Instrument: AGILENT 6546 LC/QToF
Instrument type: LC-ESI-QTOF
Ms type: MS2
Ion mode: NEGATIVE
Ionization: ESI
Collision energy: 20 eV
Precursor m/z: 261.22238
Precursor type: [M-H]-
m/z	relative intensity
96.96004	32
106.04223	111
106.04367	12
261.22232	999
261.23326	64
261.2593	11
262.22588	270
262.23716	19
263.22834	32
265.14818	67
