Mass spectrum: L8; GC-EI-FT; MS; POSITIVE; CE 40 eV
Name: L8
Name: [dimethyl(trimethylsilyloxy)silyl]oxy-[[[[dimethyl(trimethylsilyloxy)silyl]oxy-dimethylsilyl]oxy-dimethylsilyl]oxy-dimethylsilyl]oxy-dimethylsilane
Class: Non-Natural Product; Long-chained siloxanes
Formula: C18H54O7Si8
Exact mass: 606.20236633
SMILES: C[Si](C)(C)O[Si](C)(C)O[Si](C)(C)O[Si](C)(C)O[Si](C)(C)O[Si](C)(C)O[Si](C)(C)O[Si](C)(C)C
InChI: InChI=1S/C18H54O7Si8/c1-26(2,3)19-28(7,8)21-30(11,12)23-32(15,16)25-33(17,18)24-31(13,14)22-29(9,10)20-27(4,5)6/h1-18H3
Instrument: Trace 1310 GC, Thermo Scientific; Q Exactive Orbitrap, Thermo Scientific
Instrument type: GC-EI-FT
Ms type: MS
Ion mode: POSITIVE
Collision energy: 40 eV
Retention time: 16.564
Base peak: 221.084396
m/z	relative intensity
55.054321	27
55.269699	10
57.069969	15
59.031231	12
65.038612	10
67.054283	39
69.069931	21
73.046867	706
74.046425	38
74.050217	22
75.026146	12
75.043732	28
76.030807	12
77.038635	27
78.046471	12
79.054291	48
81.069954	38
83.049202	10
83.085579	17
91.054306	53
91.057442	21
93.069977	20
95.085617	23
97.101265	12
104.025719	16
105.069954	18
109.101242	12
115.054321	24
117.018738	22
117.069946	17
119.085632	11
128.062149	18
129.018311	30
129.069931	13
131.034393	31
131.085632	12
133.013641	32
133.050034	19
139.002655	10
141.069931	12
145.086411	14
147.065643	528
148.065186	53
148.068939	31
149.023392	52
149.044907	419
149.062439	38
150.044449	42
150.048218	19
151.024185	20
151.041718	28
167.055481	15
185.080795	17
191.001038	21
191.037369	19
192.980469	12
205.053131	28
207.032349	342
208.031845	47
209.011642	45
209.029205	36
221.084396	999
222.08316	126
222.088806	23
223.063858	9
223.081299	99
223.087601	9
225.042938	172
226.041901	24
227.03981	18
239.095016	181
240.093338	18
241.091888	17
248.988647	14
265.019989	29
266.999268	36
279.071991	23
281.051239	151
282.05011	25
283.047913	18
295.10321	115
296.102356	23
297.099701	16
299.061768	39
300.061005	10
324.986572	31
325.986115	10
326.965942	28
341.017883	70
342.017731	19
343.013916	10
344.976349	10
355.070038	37
359.028564	16
369.122009	69
370.12207	18
371.118408	11
399.00528	11
