Mass spectrum: 4-Nonylphenol-branched; LC-ESI-QTOF; MS2; CE: 40 eV; [M-H]-
Name: 4-Nonylphenol-branched
Name: 4-Nonylphenol
Class: Non-Natural Product
Formula: C15H24O
Exact mass: 220.18272
SMILES: CC(C)CCCCCCC1C=CC(O)=CC=1
InChI: InChI=1S/C15H24O/c1-13(2)7-5-3-4-6-8-14-9-11-15(16)12-10-14/h9-13,16H,3-8H2,1-2H3
Instrument: AGILENT 6546 LC/QToF
Instrument type: LC-ESI-QTOF
Ms type: MS2
Ion mode: NEGATIVE
Ionization: ESI
Collision energy: 40 eV
Precursor m/z: 219.17545
Precursor type: [M-H]-
m/z	relative intensity
189.09246	41
190.1	19
191.10878	12
203.10815	18
205.12338	999
205.13389	53
205.15567	11
206.12639	145
221.15449	70
222.15738	11
