Mass spectrum: 2,4 Bisphenol S; LC-ESI-QTOF; MS2; CE: 20 eV; [M-H]-
Name: 2,4 Bisphenol S
Name: 2,4-Dihydroxydiphenyl sulfone
Class: Non-Natural Product; Bisphenol
Formula: C12H10O4S
Exact mass: 250.02998
SMILES: C1=CC=C(C(=C1)O)S(=O)(=O)C2=CC=C(C=C2)O
InChI: InChI=1S/C12H10O4S/c13-9-5-7-10(8-6-9)17(15,16)12-4-2-1-3-11(12)14/h1-8,13-14H
Instrument: AGILENT 6546 LC/QToF
Instrument type: LC-ESI-QTOF
Ms type: MS2
Ion mode: NEGATIVE
Ionization: ESI
Collision energy: 20 eV
Precursor m/z: 249.02271
Precursor type: [M-H]-
m/z	relative intensity
92.02691	307
92.03407	20
93.02999	29
108.02183	999
108.02908	63
109.02529	83
155.98895	103
156.99234	18
185.06055	25
249.02298	67
250.02534	22
251.01827	18
