Mass spectrum: 2,2-Bis(4-hydroxyphenyl)propanol; LC-ESI-QTOF; MS2; CE: 10 eV; [M-H]-
Name: 2,2-Bis(4-hydroxyphenyl)propanol
Name: 4-HYDROXY-BETA-(4-HYDROXYPHENYL)-BETA-METHYLBENZENEETHANOL
Class: Non-Natural Product; Bisphenol
Formula: C15H16O3
Exact mass: 244.10994
SMILES: CC(CO)(C1=CC=C(C=C1)O)C2=CC=C(C=C2)O
InChI: InChI=1S/C15H16O3/c1-15(10-16,11-2-6-13(17)7-3-11)12-4-8-14(18)9-5-12/h2-9,16-18H,10H2,1H3
Instrument: AGILENT 6546 LC/QToF
Instrument type: LC-ESI-QTOF
Ms type: MS2
Ion mode: NEGATIVE
Ionization: ESI
Collision energy: 10 eV
Precursor m/z: 243.10268
Precursor type: [M-H]-
m/z	relative intensity
93.03456	72
211.07621	13
212.08459	23
213.09121	36
225.09264	43
243.10279	999
243.11406	49
244.10602	243
244.11765	15
245.10946	34
