Mass spectrum: MEOHP; LC-ESI-FT; MS2; CE Ramp 10-30 kV; [M-H]-
Name: MEOHP
Name: 2-(2-ethyl-5-oxohexoxy)carbonylbenzoic acid
Class: Non-Natural Product; Phthalate metabolite
Formula: C16H20O5
Exact mass: 292.13107373
SMILES: CCC(CCC(=O)C)COC(=O)C1=CC=CC=C1C(=O)O
InChI: InChI=1S/C16H20O5/c1-3-12(9-8-11(2)17)10-21-16(20)14-7-5-4-6-13(14)15(18)19/h4-7,12H,3,8-10H2,1-2H3,(H,18,19)
Instrument: Vanquish LC, Thermo Scientific; Exploris 120 Orbitrap, Thermo Scientific
Instrument type: LC-ESI-FT
Ms type: MS2
Ion mode: NEGATIVE
Collision energy: Ramp 10-30 kV
Retention time: 4.31111575029691
Precursor m/z: 291.12341
Precursor type: [M-H]-
m/z	relative intensity
71.05011	999
