Mass spectrum: Cbzl; GC-EI-FT; MS; POSITIVE; CE 40 eV
Name: Cbzl
Name: 9H-carbazole
Class: Non-Natural Product; Semi-volatile organic contaminants (SVOCs)
Formula: C12H9N
Exact mass: 167.073499291
SMILES: C1=CC=C2C(=C1)C3=CC=CC=C3N2
InChI: InChI=1S/C12H9N/c1-3-7-11-9(5-1)10-6-2-4-8-12(10)13-11/h1-8,13H
Instrument: Trace 1310 GC, Thermo Scientific; Q Exactive Orbitrap, Thermo Scientific
Instrument type: GC-EI-FT
Ms type: MS
Ion mode: POSITIVE
Collision energy: 40 eV
Retention time: 11.138
Base peak: 167.072937
m/z	relative intensity
63.022984	5
70.528465	5
75.023003	5
82.528419	5
83.53624	41
84.037949	5
86.015137	5
87.022995	10
88.030807	7
89.038612	14
113.038589	41
114.033905	5
114.042023	4
114.046486	9
115.054291	22
116.049553	5
137.038666	19
138.046478	20
139.054199	187
140.049423	117
140.057648	23
140.062103	19
141.052902	14
164.049469	38
165.052887	6
165.057327	10
166.065109	276
167.068375	37
167.072937	999
167.076172	7
167.077072	7
167.078339	5
168.076233	131
169.079742	9
