Mass spectrum: PFOcDA; LC-ESI-FT; MS2; CE 20 eV; [M-H]-
Name: PFOcDA
Name: 2,2,3,3,4,4,5,5,6,6,7,7,8,8,9,9,10,10,11,11,12,12,13,13,14,14,15,15,16,16,17,17,18,18,18-pentatriacontafluorooctadecanoic acid
Class: Non-Natural Product; Per- and polyfluoroalkyl substances
Formula: C18HF35O2
Exact mass: 913.9417649
SMILES: C(=O)(C(C(C(C(C(C(C(C(C(C(C(C(C(C(C(C(C(F)(F)F)(F)F)(F)F)(F)F)(F)F)(F)F)(F)F)(F)F)(F)F)(F)F)(F)F)(F)F)(F)F)(F)F)(F)F)(F)F)(F)F)O
InChI: InChI=1S/C18HF35O2/c19-2(20,1(54)55)3(21,22)4(23,24)5(25,26)6(27,28)7(29,30)8(31,32)9(33,34)10(35,36)11(37,38)12(39,40)13(41,42)14(43,44)15(45,46)16(47,48)17(49,50)18(51,52)53/h(H,54,55)
Instrument: Vanquish LC, Thermo Scientific; Exploris 120 Orbitrap, Thermo Scientific
Instrument type: LC-ESI-FT
Ms type: MS2
Ion mode: NEGATIVE
Collision energy: 20 eV
Retention time: 11.6662169535531
Precursor m/z: 912.93451
Precursor type: [M-H]-
m/z	relative intensity
50.52452	10
62.98866	50
118.99334	18
138.49216	12
168.98914	442
192.12247	12
218.96370	10
218.98610	795
226.70097	67
268.98291	951
318.97983	999
368.97638	962
418.97318	802
468.97021	801
518.96704	746
568.96423	746
618.96130	608
668.95703	260
709.66595	14
718.95361	38
