Mass spectrum: HDBP; LC-ESI-FT; MS2; CE 30% (nominal); [M-H]-
Name: HDBP
Name: dibutyl hydrogen phosphate
Class: Non-Natural Product; OPFR metabolite
Formula: C8H19O4P
Exact mass: 210.10209608
SMILES: CCCCOP(=O)(O)OCCCC
InChI: InChI=1S/C8H19O4P/c1-3-5-7-11-13(9,10)12-8-6-4-2/h3-8H2,1-2H3,(H,9,10)
Instrument: Vanquish LC, Thermo Scientific; Exploris 120 Orbitrap, Thermo Scientific
Instrument type: LC-ESI-FT
Ms type: MS2
Ion mode: NEGATIVE
Collision energy: 30% (nominal)
Retention time: 4.82743835908572
Precursor m/z: 209.09465
Precursor type: [M-H]-
m/z	relative intensity
78.95899	440
153.03221	623
154.03571	15
209.09485	999
210.09813	53
