Mass spectrum: 2,4 Bisphenol S; LC-ESI-QTOF; MS2; CE: 40 eV; [M-H]-
Name: 2,4 Bisphenol S
Name: 2,4-Dihydroxydiphenyl sulfone
Class: Non-Natural Product; Bisphenol
Formula: C12H10O4S
Exact mass: 250.02998
SMILES: C1=CC=C(C(=C1)O)S(=O)(=O)C2=CC=C(C=C2)O
InChI: InChI=1S/C12H10O4S/c13-9-5-7-10(8-6-9)17(15,16)12-4-2-1-3-11(12)14/h1-8,13-14H
Instrument: AGILENT 6546 LC/QToF
Instrument type: LC-ESI-QTOF
Ms type: MS2
Ion mode: NEGATIVE
Ionization: ESI
Collision energy: 40 eV
Precursor m/z: 249.02271
Precursor type: [M-H]-
m/z	relative intensity
64.03182	21
80.0266	26
92.02666	420
92.03395	15
93.02979	71
108.02158	999
108.02911	33
109.02363	19
109.02517	36
1014.64757	13
