Mass spectrum: 2-Bromoallyl 2,4,6-tribromophenyl ether; EI-QTOF; MS; CE 70 V
Name: 2-Bromoallyl 2,4,6-tribromophenyl ether
Name: BATE
Class: Non-Natural Product; Brominated flame retardant
Formula: C9H6Br4O
Exact mass: 445.7152164137
SMILES: C=C(COC1=C(C=C(C=C1Br)Br)Br)Br
InChI: InChI=1S/C9H6Br4O/c1-5(10)4-14-9-7(12)2-6(11)3-8(9)13/h2-3H,1,4H2
Instrument: Agilent 7200 GC/QTOF
Instrument type: GC-EI-QTOF
Ms type: MS
Ion mode: POSITIVE
Ionization: EI
Collision energy: 70 V
Retention time: 6.23
m/z	relative intensity
37.0077343656825	17
38.0157239524632	20
39.023612872421	334
40.0308474224457	34
50.0155883026578	17
53.0026700878532	21
55.0547013524762	18
61.0073564366836	131
62.0152910875803	380
63.0221223749371	44
73.0074655865751	23
74.015015990519	105
75.0227608945558	46
79.9254522529169	25
80.9157485585081	13
81.9230262455534	25
90.010035590008	26
92.9334022123692	21
94.9312479091852	20
101.038089989049	33
102.045887703623	101
115.925526140851	16
117.922606563411	18
118.948659545196	172
120.927285620228	26
120.946177243512	173
122.925739280576	29
139.924784105924	25
140.932996889664	303
141.92928765819	26
142.93088747201	304
143.935970539069	21
152.933048565009	37
153.937519679914	17
154.931084120622	37
155.937761367781	14
169.934989982562	22
171.933332235756	18
179.955953492874	20
180.963274309263	13
181.954966337131	20
182.960932683823	13
194.842036155925	21
196.84101903354	38
198.838993797102	20
207.949870828233	15
208.959120961738	240
209.961895848407	29
210.956907246434	237
211.960545434548	19
219.850609589031	50
220.852855149107	23
221.848297635884	98
222.854505438823	40
223.846651859504	44
224.853659517268	16
233.848795678316	26
235.848464097946	14
247.846290034446	53
249.843524635366	101
250.850117524076	23
251.842861104075	44
286.869245418633	94
287.876664915668	192
288.868215000441	202
289.874888535734	430
290.869067537791	103
291.872572895046	196
292.87462235168	18
298.768834922468	87
300.766966602032	268
300.826397165481	15
302.764525266271	270
302.817200565414	16
304.762300649317	73
324.784793878799	67
326.777432130338	286
326.841668787176	17
327.772539938584	315
327.836494759617	18
328.768679309158	577
329.77044586922	999
330.763345878484	541
331.768230334466	991
332.761073317603	169
333.765385409452	285
334.768468247296	15
366.794373736748	51
367.787563572609	22
368.793607762447	149
369.789614065844	24
370.790759122096	144
371.794268168858	19
372.789397821484	47
445.712757642145	27
447.712294125514	115
449.710476172781	179
450.711338594185	17
451.707106743475	112
453.705893325991	24
