Mass spectrum: Benzene; GC-EI-QTOF; MS; CE 70 V
Name: Benzene
Name: Cyclohexatriene
Class: Non-Natural Product
Formula: C6H6
Exact mass: 78.047
SMILES: C1C=CC=CC=1
InChI: InChI=1S/C6H6/c1-2-4-6-5-3-1/h1-6H
Instrument: Agilent 7250 GC/QTOF
Instrument type: GC-EI-QTOF
Ms type: MS
Ion mode: POSITIVE
Ionization: EI
Collision energy: 70 V
Retention time: 12.19
m/z	relative intensity
38.0151811806819	18
39.0229708889259	61
49.0074767851669	11
50.0152423819304	132
51.0230468782745	163
52.0308562825395	161
63.0230417103947	22
74.0152304575589	35
75.0230768023116	11
76.0308302976373	41
77.0387267542071	213
78.0466077498998	999
79.049889985407	53
