Mass spectrum: 2,2-Bis(4-hydroxyphenyl)propanol; LC-ESI-QTOF; MS2; CE: 20 eV; [M-H]-
Name: 2,2-Bis(4-hydroxyphenyl)propanol
Name: 4-HYDROXY-BETA-(4-HYDROXYPHENYL)-BETA-METHYLBENZENEETHANOL
Class: Non-Natural Product; Bisphenol
Formula: C15H16O3
Exact mass: 244.10994
SMILES: CC(CO)(C1=CC=C(C=C1)O)C2=CC=C(C=C2)O
InChI: InChI=1S/C15H16O3/c1-15(10-16,11-2-6-13(17)7-3-11)12-4-8-14(18)9-5-12/h2-9,16-18H,10H2,1H3
Instrument: AGILENT 6546 LC/QToF
Instrument type: LC-ESI-QTOF
Ms type: MS2
Ion mode: NEGATIVE
Ionization: ESI
Collision energy: 20 eV
Precursor m/z: 243.10268
Precursor type: [M-H]-
m/z	relative intensity
59.01367	18
68.99528	28
93.03447	961
93.04113	60
94.03784	126
106.0426	18
107.04989	21
112.98565	34
117.03474	13
119.05019	76
120.05374	10
134.03719	188
135.04234	31
148.05312	17
149.06076	128
150.06434	25
157.06629	17
171.08144	17
195.08133	71
196.08593	15
197.06007	49
198.06916	188
199.07205	44
208.05251	12
209.06103	106
210.06858	287
211.07621	279
212.07857	16
212.08481	467
213.09246	543
214.09568	118
224.08389	26
225.09194	551
225.10225	38
226.09554	141
228.07923	35
243.09248	12
243.10269	999
243.11324	72
244.10685	309
245.1082	36
