Mass spectrum: 4-HYDROXYBENZOPHENONE; LC-ESI-QTOF; MS2; CE: 10 eV; [M-H]-
Name: 4-HYDROXYBENZOPHENONE
Name: 1-(4-Hydroxyphenyl)-1-phenylmethanone
Class: Non-Natural Product
Formula: C13H10O2
Exact mass: 198.06807956
SMILES: OC1C=CC(=CC=1)C(=O)C1C=CC=CC=1
InChI: InChI=1S/C13H10O2/c14-12-8-6-11(7-9-12)13(15)10-4-2-1-3-5-10/h1-9,14H
Instrument: AGILENT 6546 LC/QToF
Instrument type: LC-ESI-QTOF
Ms type: MS2
Ion mode: NEGATIVE
Ionization: ESI
Collision energy: 10 eV
Precursor m/z: 197.06081
Precursor type: [M-H]-
m/z	relative intensity
92.02674	14
197.06089	999
198.06415	217
198.07453	12
199.06642	21
