Mass spectrum: Tetrabromobisphenol A; LC-ESI-QTOF; MS2; CE: 20 eV; [M-H]- 
Name: Tetrabromobisphenol A
Name: 3,3',5,5'-Tetrabromobisphenol A
Class: Non-Natural Product; Bisphenol
Formula: C15H12Br4O2
Exact mass: 539.75708
SMILES: CC(C)(C1=CC(Br)=C(O)C(Br)=C1)C1=CC(Br)=C(O)C(Br)=C1
InChI: InChI=1S/C15H12Br4O2/c1-15(2,7-3-9(16)13(20)10(17)4-7)8-5-11(18)14(21)12(19)6-8/h3-6,20-21H,1-2H3
Instrument: AGILENT 6546 LC/QToF
Instrument type: LC-ESI-QTOF
Ms type: MS2
Ion mode: NEGATIVE
Ionization: ESI
Collision energy: 20 eV
Precursor m/z: 538.7511
Precursor type: [M-H]-
m/z	relative intensity
78.91868	13
80.91666	30
445.79718	14
447.79552	20
527.72427	17
542.74514	999
542.76002	56
543.74876	219
543.76327	14
544.74314	767
544.75988	30
544.79545	10
545.7461	127
545.76245	11
546.74079	84
546.7523	12
