Mass spectrum: PFHxA; LC-ESI-FT; MS2; CE 20 eV; [M-H]-
Name: PFHxA
Name: 2,2,3,3,4,4,5,5,6,6,6-undecafluorohexanoic acid
Class: Non-Natural Product; Per- and polyfluoroalkyl substances
Formula: C6HF11O2
Exact mass: 313.98008905
SMILES: C(=O)(C(C(C(C(C(F)(F)F)(F)F)(F)F)(F)F)(F)F)O
InChI: InChI=1S/C6HF11O2/c7-2(8,1(18)19)3(9,10)4(11,12)5(13,14)6(15,16)17/h(H,18,19)
Instrument: Vanquish LC, Thermo Scientific; Exploris 120 Orbitrap, Thermo Scientific
Instrument type: LC-ESI-FT
Ms type: MS2
Ion mode: NEGATIVE
Collision energy: 20 eV
Retention time: 5.40413680867089
Precursor m/z: 312.97333
Precursor type: [M-H]-
m/z	relative intensity
50.98075	33
59.01382	72
68.99560	999
69.00028	56
104.31929	34
118.99231	453
144.32251	34
162.96048	62
176.97539	63
190.58691	40
191.21539	31
226.69905	90
251.20238	35
268.98264	304
276.87906	140
