Mass spectrum: alpha-Hexabromocyclododecane; EI-QTOF; MS; CE: 70V
Name: alpha-Hexabromocyclododecane
Name: a-HCBD
Class: Non-Natural Product; Brominated flame retardant
Formula: C12H18Br6
Exact mass: 635.65088
SMILES: C1C[C@H]([C@H](CC[C@H]([C@@H](CC[C@@H]([C@@H]1Br)Br)Br)Br)Br)Br
InChI: InChI=1S/C12H18Br6/c13-7-1-2-8(14)10(16)5-6-12(18)11(17)4-3-9(7)15/h7-12H,1-6H2/t7-,8-,9+,10+,11-,12-/m1/s1
Instrument: Agilent 7200 GC/QTOF
Instrument type: GC-EI-QTOF
Ms type: MS
Ion mode: POSITIVE
Ionization: EI
Collision energy: 70 V
Retention time: 10.78
m/z	relative intensity
27.0235376902956	37
29.0390956303188	20
39.023792087502	281
41.0395103299315	398
43.0550330594595	18
51.0237634257887	74
52.0309672845824	41
53.0392345624015	334
54.0469206666371	352
55.0546896060083	121
63.02315906019	23
64.0312557433426	24
65.0391849044585	349
66.0464981839969	136
67.0546490947373	840
68.0601296199474	48
69.0701996155886	31
77.0387354187189	303
78.0463729231884	125
78.9183074546699	36
79.0545621846501	961
79.9259729916905	84
80.0610940323728	128
80.9154979171074	34
81.0700477225681	354
81.9241649559268	71
82.0760887487106	21
83.0857907154316	19
91.0544331435855	817
92.0607092174994	132
93.0702232901362	360
94.0760664070584	41
95.0856337678509	113
103.05468737065	43
104.062320260992	42
105.070057809148	348
106.076845629575	73
107.085807569685	194
108.091942213738	21
115.054451810252	47
116.061610454011	20
117.070117193329	305
118.07587438947	57
118.949023069474	100
119.085801779223	215
120.09165791934	38
120.947203878541	97
128.062350288776	19
129.070490069163	106
130.076498902529	30
131.08586617758	212
131.958108784386	18
132.091801896475	35
132.964436221375	45
133.101575587333	140
133.955370659724	19
134.106784858811	26
134.962780451734	37
142.077636161089	20
143.08523235192	19
144.964926491618	61
145.101140869809	18
146.963225957328	57
156.965373722419	33
157.101613107736	619
158.107863278355	189
158.978062906549	85
159.117099826409	999
160.122814212022	206
160.979009732183	81
161.132527174519	404
162.136059046358	50
168.964781721556	24
170.976888505945	47
172.990861627331	52
174.994670582464	37
182.980281204869	25
184.9904219745	34
187.001211749118	21
194.979598597263	17
196.99206356843	29
199.001945550204	27
213.012339574442	18
237.027781620753	306
237.077261240669	20
238.032722636278	62
239.035977877609	345
239.092456228806	26
240.035971683927	70
241.041917081047	214
242.046015967126	29
243.056396060062	22
316.954035731319	113
318.953555283428	238
319.957157018338	31
320.956493795205	121
322.965948597888	27
398.880067157889	47
400.877800362123	41
560.730337864888	18
