Mass spectrum: CTCMPy; GC-EI-FT; MS; POSITIVE; CE 40 eV
Name: CTCMPy
Name: 2-chloro-6-(trichloromethyl)pyridine
Class: Non-Natural Product; Semi-volatile organic contaminants (SVOCs)
Formula: C6H3Cl4N
Exact mass: 230.899010
SMILES: C1=CC(=NC(=C1)Cl)C(Cl)(Cl)Cl
InChI: InChI=1S/C6H3Cl4N/c7-5-3-1-2-4(11-5)6(8,9)10/h1-3H
Instrument: Trace 1310 GC, Thermo Scientific; Q Exactive Orbitrap, Thermo Scientific
Instrument type: GC-EI-FT
Ms type: MS
Ion mode: POSITIVE
Collision energy: 40 eV
Retention time: 8.699
Base peak: 193.932404
m/z	relative intensity
61.007278	7
62.015129	10
63.022934	6
71.97612	10
72.983955	35
73.046806	28
74.981018	14
76.018166	29
79.48156	16
80.48011	11
81.937134	6
82.944954	18
83.97612	8
84.942017	11
84.983932	9
87.010345	7
88.01815	29
88.486824	8
95.976097	7
96.983932	52
97.979179	17
98.980972	18
98.999596	6
99.976212	7
106.944939	31
108.942017	24
111.994812	22
113.991882	7
116.905945	5
118.903046	6
123.994766	141
124.998207	7
125.991867	45
130.944977	10
132.942001	6
132.96051	179
133.955856	14
133.963943	10
134.957565	115
135.952927	8
135.961014	6
136.954712	18
142.005417	6
147.065521	28
149.044815	19
157.95578	74
158.963623	44
159.952835	49
159.97142	70
160.960663	28
160.974792	5
161.949875	6
161.968475	48
163.965546	7
166.921585	25
168.918625	24
170.915695	8
193.932404	999
193.936569	9
193.937485	9
194.935806	65
194.940201	5
195.929443	947
195.933685	6
195.934631	8
196.932861	62
197.926407	312
198.929916	23
199.923615	35
221.084335	9
230.898453	6
281.051147	37
282.050568	7
299.061584	7
326.965637	19
