Mass spectrum: Triallyl isocyanurate; GC-EI-FT; MS; POSITIVE; CE 40 eV
Name: Triallyl isocyanurate
Name: 1,3,5-tris(prop-2-enyl)-1,3,5-triazinane-2,4,6-trione
Name: ITAC
Class: Non-Natural Product; Semi-volatile organic contaminants (SVOCs)
Formula: C12H15N3O3
Exact mass: 249.11134135
SMILES: C=CCN1C(=O)N(C(=O)N(C1=O)CC=C)CC=C
InChI: InChI=1S/C12H15N3O3/c1-4-7-13-10(16)14(8-5-2)12(18)15(9-6-3)11(13)17/h4-6H,1-3,7-9H2
Instrument: Trace 1310 GC, Thermo Scientific; Q Exactive Orbitrap, Thermo Scientific
Instrument type: GC-EI-FT
Ms type: MS
Ion mode: POSITIVE
Collision energy: 40 eV
Retention time: 8.496
Base peak: 82.028763
m/z	relative intensity
54.033844	282
55.041691	136
56.013115	102
56.025703	47
56.049519	27
67.054276	35
68.049538	42
69.992386	314
77.038605	32
79.05426	69
80.049507	27
81.069923	49
82.028763	999
82.065163	20
83.03212	53
83.03656	533
84.039978	28
84.044418	146
91.054268	95
93.069946	33
94.065178	47
95.085571	23
96.044426	21
96.080811	24
97.039711	42
105.069946	41
107.085571	20
109.039711	36
111.018951	37
115.054283	54
117.069916	35
119.085602	28
123.018921	25
123.055328	41
124.026764	227
124.075768	50
125.034576	295
127.050247	44
128.062103	39
129.069916	34
130.991547	26
131.085617	26
137.070984	129
139.050262	33
139.086639	64
141.069901	24
143.085571	22
151.050232	54
154.061111	56
165.065872	35
166.073654	27
167.081512	37
170.056	29
179.117844	33
205.084579	34
207.032349	42
207.063843	51
208.071579	657
209.075027	64
225.042953	26
234.087341	161
235.090729	21
249.110779	543
250.114258	70
