Mass spectrum: MPDcH; GC-EI-FT; MS; POSITIVE; CE 40 eV
Name: MPDcH
Name: 1-methoxy-4-(4-propylcyclohexyl)cyclohexane
Class: Non-Natural Product; Semi-volatile organic contaminants (SVOCs)
Formula: C16H30O
Exact mass: 238.229665576
SMILES: CCCC1CCC(CC1)C2CCC(CC2)OC
InChI: InChI=1S/C16H30O/c1-3-4-13-5-7-14(8-6-13)15-9-11-16(17-2)12-10-15/h13-16H,3-12H2,1-2H3
Instrument: Trace 1310 GC, Thermo Scientific; Q Exactive Orbitrap, Thermo Scientific
Instrument type: GC-EI-FT
Ms type: MS
Ion mode: POSITIVE
Collision energy: 40 eV
Retention time: 10.93
Base peak: 81.069908
m/z	relative intensity
55.054237	154
57.069897	37
67.054222	420
68.057632	28
69.069885	218
71.049164	150
72.056999	28
77.038582	64
78.046432	60
79.054207	404
80.057587	34
80.062027	202
81.069908	999
82.073242	76
82.077698	497
83.081062	41
83.085487	277
91.05423	122
93.069862	272
94.077721	103
95.085495	396
96.08889	38
96.093338	126
97.101204	116
105.069916	34
107.085503	189
108.093315	199
109.101151	430
110.104561	37
110.109024	83
111.116852	54
121.101128	309
122.104568	31
122.10894	376
123.112381	45
123.11676	500
124.120239	51
124.124664	180
135.116791	228
136.120239	31
136.124695	54
137.132523	49
138.140335	41
149.132492	94
150.14032	37
151.148132	35
163.147995	674
164.151505	88
164.155945	83
177.163666	311
178.167114	44
191.179382	27
206.202774	521
207.206268	90
