Mass spectrum: PFPrA; LC-ESI-FT; MS2; CE 10 eV; [M-H]-
Name: PFPrA
Name: 2,2,3,3,3-pentafluoropropanoic acid
Class: Non-Natural Product; Short-chained per- and polyfluoroalkyl substances (PFAS)
Formula: C3HF5O2
Exact mass: 163.98967008
SMILES: C(=O)(C(C(F)(F)F)(F)F)O
InChI: InChI=1S/C3HF5O2/c4-2(5,1(9)10)3(6,7)8/h(H,9,10)
Instrument: Vanquish LC, Thermo Scientific; Exploris 120 Orbitrap, Thermo Scientific
Instrument type: LC-ESI-FT
Ms type: MS2
Ion mode: NEGATIVE
Collision energy: 10 eV
Retention time: 9.80262873433431
Precursor m/z: 162.98225
Precursor type: [M-H]-
m/z	relative intensity
56.50366	2
65.13013	2
76.22495	2
104.34785	2
118.99223	999
131.34166	2
162.98175	48
