Mass spectrum: CHLOROFORM; GC-EI-QTOF; MS; CE 70 V
Name: CHLOROFORM
Name: Trichloromethane
Class: Non-Natural Product
Formula: CHCl3
Exact mass: 117.91438307199999
SMILES: ClC(Cl)Cl
InChI: InChI=1S/CHCl3/c2-1(3)4/h1H
Instrument: Agilent 7250 GC/QTOF
Instrument type: GC-EI-QTOF
Ms type: MS
Ion mode: POSITIVE
Ionization: EI
Collision energy: 70 V
m/z	relative intensity
34.9683041298	17
43.054557319517	13
46.9683041298	142
47.9761291617	63
48.9653546	47
49.9731791006157	21
81.9371568398	30
82.9449818717	999
83.9342067298	18
84.9420317861579	690
86.939081749531	99
116.9060095498	11
118.90306002	11
