Mass spectrum: PFBA; LC-ESI-FT; MS2; CE 10 eV; [M-H]-
Name: PFBA
Name: 2,2,3,3,4,4,4-heptafluorobutanoic acid
Class: Non-Natural Product; Short-chained per- and polyfluoroalkyl substances (PFAS)
Formula: C4HF7O2
Exact mass: 213.98647640
SMILES: C(=O)(C(C(C(F)(F)F)(F)F)(F)F)O
InChI: InChI=1S/C4HF7O2/c5-2(6,1(12)13)3(7,8)4(9,10)11/h(H,12,13)
Instrument: Vanquish LC, Thermo Scientific; Exploris 120 Orbitrap, Thermo Scientific
Instrument type: LC-ESI-FT
Ms type: MS2
Ion mode: NEGATIVE
Collision energy: 10 eV
Retention time: 8.96525207621256
Precursor m/z: 212.97917
Precursor type: [M-H]-
m/z	relative intensity
80.69852	1
91.52969	1
119.98856	1
129.72383	1
168.98901	999
212.97867	46
213.01892	2
213.06870	2
