Mass spectrum: PFPeA; LC-ESI-FT; MS2; CE 10 eV; [M-H]-
Name: PFPeA
Name: 2,2,3,3,4,4,5,5,5-nonafluoropentanoic acid
Class: Non-Natural Product; Perfluoroalkyl carboxylic acid
Formula: C5HF9O2
Exact mass: 263.98328273
SMILES: C(=O)(C(C(C(C(F)(F)F)(F)F)(F)F)(F)F)O
InChI: InChI=1S/C5HF9O2/c6-2(7,1(15)16)3(8,9)4(10,11)5(12,13)14/h(H,15,16)
Instrument: Vanquish LC, Thermo Scientific; Exploris 120 Orbitrap, Thermo Scientific
Instrument type: LC-ESI-FT
Ms type: MS2
Ion mode: NEGATIVE
Collision energy: 10 eV
Retention time: 4.78897496987449
Precursor m/z: 262.97629
Precursor type: [M-H]-
m/z	relative intensity
218.98604	999
226.70547	12
262.97589	54
