Mass spectrum: PFDA; LC-ESI-FT; MS2; CE 20 eV; [M-H]-
Name: PFDA
Name: 2,2,3,3,4,4,5,5,6,6,7,7,8,8,9,9,10,10,10-nonadecafluorodecanoic acid
Class: Non-Natural Product; Per- and polyfluoroalkyl substances
Formula: C10HF19O2
Exact mass: 513.9673143
SMILES: C(=O)(C(C(C(C(C(C(C(C(C(F)(F)F)(F)F)(F)F)(F)F)(F)F)(F)F)(F)F)(F)F)(F)F)O
InChI: InChI=1S/C10HF19O2/c11-2(12,1(30)31)3(13,14)4(15,16)5(17,18)6(19,20)7(21,22)8(23,24)9(25,26)10(27,28)29/h(H,30,31)
Instrument: Vanquish LC, Thermo Scientific; Exploris 120 Orbitrap, Thermo Scientific
Instrument type: LC-ESI-FT
Ms type: MS2
Ion mode: NEGATIVE
Collision energy: 20 eV
Retention time: 6.66955031019847
Precursor m/z: 512.96039
Precursor type: [M-H]-
m/z	relative intensity
54.81396	134
63.01804	144
93.17552	122
99.22755	121
127.85720	123
130.94458	145
141.01746	213
168.98885	824
178.16751	127
185.17963	146
218.98607	992
226.70068	999
268.98264	821
318.97849	263
468.97348	544
