Mass spectrum: OPA; GC-EI-FT; MS; POSITIVE; CE 40 eV
Name: OPA
Name: phthalaldehyde
Class: Non-Natural Product; Semi-volatile organic contaminants (SVOCs)
Formula: C8H6O2
Exact mass: 134.036779430
SMILES: C1=CC=C(C(=C1)C=O)C=O
InChI: InChI=1S/C8H6O2/c9-5-7-3-1-2-4-8(7)6-10/h1-6H
Instrument: Trace 1310 GC, Thermo Scientific; Q Exactive Orbitrap, Thermo Scientific
Instrument type: GC-EI-FT
Ms type: MS
Ion mode: POSITIVE
Collision energy: 40 eV
Retention time: 7.259
Base peak: 105.033516
m/z	relative intensity
51.022961	10
62.015163	4
63.022972	7
74.015129	37
75.02298	17
76.030785	34
77.03862	367
78.041977	29
78.046432	41
89.038597	7
95.049164	27
104.025673	8
105.033516	999
105.035126	9
105.035591	9
105.044777	25
106.036819	78
106.041306	123
107.044731	11
133.028397	56
134.031845	5
134.036194	83
135.039642	8
