Mass spectrum: 3-tert-Butylphenol; GC-EI-FT; MS; POSITIVE; CE 40 eV
Name: 3-tert-Butylphenol
Name: 3-tert-butylphenol
Name: 3TBP
Class: Non-Natural Product; Semi-volatile organic contaminants (SVOCs)
Formula: C10H14O
Exact mass: 150.104465066
SMILES: CC(C)(C)C1=CC(=CC=C1)O
InChI: InChI=1S/C10H14O/c1-10(2,3)8-5-4-6-9(11)7-8/h4-7,11H,1-3H3
Instrument: Trace 1310 GC, Thermo Scientific; Q Exactive Orbitrap, Thermo Scientific
Instrument type: GC-EI-FT
Ms type: MS
Ion mode: POSITIVE
Collision energy: 40 eV
Retention time: 19.297
Base peak: 326.783417
m/z	relative intensity
95.049225	44
103.054337	12
105.070007	19
107.049225	594
108.052582	48
115.054352	25
119.049278	30
120.057121	7
133.064926	13
134.072754	11
135.080521	999
135.086685	8
136.083923	101
150.104004	105
151.107391	11
