Mass spectrum: MNCBTF; GC-EI-FT; MS; POSITIVE; CE 40 eV
Name: MNCBTF
Name: 5-chloro-2-methyl-1-nitro-3-(trifluoromethyl)benzene
Class: Non-Natural Product; Semi-volatile organic contaminants (SVOCs)
Formula: C8H5ClF3NO2
Exact mass: 238.9960906
SMILES: CC1=C(C=C(C=C1[N+](=O)[O-])Cl)C(F)(F)F
InChI: InChI=1S/C8H5ClF3NO2/c1-4-6(8(10,11)12)2-5(9)3-7(4)13(14)15/h2-3H,1H3
Instrument: Trace 1310 GC, Thermo Scientific; Q Exactive Orbitrap, Thermo Scientific
Instrument type: GC-EI-FT
Ms type: MS
Ion mode: POSITIVE
Collision energy: 40 eV
Retention time: 6.899
Base peak: 221.992737
m/z	relative intensity
63.022968	34
72.984009	23
75.004135	21
75.022995	19
81.01355	41
87.022957	70
89.038589	53
96.984001	24
107.029152	140
108.024422	22
108.036995	32
112.011925	23
116.990211	35
117.013527	30
118.021347	23
122.999626	32
125.002731	21
125.019783	57
126.027596	22
127.035416	54
131.010376	22
132.018127	245
137.019745	148
138.01503	26
138.027527	391
139.022827	76
139.03096	36
139.035416	39
140.026199	32
143.005798	360
143.010284	27
144.001068	168
144.009232	29
145.002899	126
145.02597	110
145.998138	57
147.035309	28
147.988617	35
152.990204	19
156.018127	63
157.025955	165
158.02121	115
158.033722	313
159.029037	50
159.037155	27
160.996368	142
162.993454	48
165.025894	83
165.979172	64
166.021133	79
166.986954	174
168.984039	59
171.98851	184
172.996445	24
173.985687	59
173.991562	319
174.052536	21
174.975708	41
174.986923	53
175.988693	111
178.986984	24
181.991577	38
191.994812	28
192.002182	29
193.00267	67
193.997787	598
195.001617	38
195.005615	21
195.994888	186
201.986572	24
208.013565	29
209.021393	39
212.008469	101
214.005539	31
219.997208	36
221.992737	999
222.996185	84
223.989777	324
224.993271	31
238.995621	71
240.992706	21
