Mass spectrum: 1,2-Dibromo-4-(1,2-dibromoethyl)cyclohexane; EI-QTOF; MS; CE 70 V
Name: 1,2-Dibromo-4-(1,2-dibromoethyl)cyclohexane
Name: TBECH
Formula: C8H12Br4
Exact mass: 423.7672519828
SMILES: C1CC(C(CC1C(CBr)Br)Br)Br
InChI: InChI=1S/C8H12Br4/c9-4-8(12)5-1-2-6(10)7(11)3-5/h5-8H,1-4H2
Instrument: Agilent 7200 GC/QTOF
Instrument type: GC-EI-QTOF
Ms type: MS
Ion mode: POSITIVE
Ionization: EI
Collision energy: 70 V
Retention time: 6.05
m/z	relative intensity
27.0235324922554	35
27.9944364480231	16
29.0391821627449	13
39.0238889260765	127
40.0310288556784	12
41.0396037804677	120
50.0162773582677	20
51.023481625589	87
52.03116784329	88
52.534489267969	11
53.0390489647678	188
54.0469519179602	101
55.0550148674907	32
57.0704594742922	16
63.0233216712138	18
65.0389828021443	103
66.0464767944605	51
67.0545751175793	96
77.0387628516705	191
77.0663502459068	10
78.0465224229556	64
79.0546861633781	642
79.9259423141365	21
80.0612778732281	78
81.0703472847433	145
81.9234172881194	22
91.054581808355	303
91.0847666185266	14
92.0612370331765	34
93.0012784340935	15
93.0698469202672	62
94.0008639921854	10
96.0931885525363	13
103.054704657226	47
104.061521497447	20
105.07023747182	999
106.077106546955	210
106.104131722663	15
106.948985159572	17
107.085976286065	559
107.117882518346	26
108.091354167706	51
108.947315429625	21
118.948805827374	29
120.947717294538	31
132.965444780526	16
134.963016794009	12
144.964707132023	15
146.962541085932	17
156.965883313839	16
158.969852836287	17
160.979197332455	10
184.996562164674	434
186.000251106655	42
186.996249297551	404
187.045365902746	28
188.000785607537	35
189.01028438714	79
264.922776947489	344
265.925508446777	32
266.921065526829	731
266.999794901737	25
267.924650562043	67
268.919349845789	330
268.968433401725	28
269.923476800914	33
346.847013921321	13
348.843884069247	13
