Mass spectrum: SuFu; GC-EI-FT; MS; POSITIVE; CE 40 eV
Name: SuFu
Name: 1,1,3-trimethyl-3-phenyl-2H-indene
Class: Non-Natural Product; Semi-volatile organic contaminants (SVOCs)
Formula: C18H20
Exact mass: 236.156500638
SMILES: CC1(CC(C2=CC=CC=C21)(C)C3=CC=CC=C3)C
InChI: InChI=1S/C18H20/c1-17(2)13-18(3,14-9-5-4-6-10-14)16-12-8-7-11-15(16)17/h4-12H,13H2,1-3H3
Instrument: Trace 1310 GC, Thermo Scientific; Q Exactive Orbitrap, Thermo Scientific
Instrument type: GC-EI-FT
Ms type: MS
Ion mode: POSITIVE
Collision energy: 40 eV
Retention time: 16.944
Base peak: 221.132385
m/z	relative intensity
55.281651	10
55.282516	5
55.532501	2
65.038605	9
76.030807	5
77.038612	20
78.046463	9
79.054268	11
88.030731	1
89.038612	24
89.540329	2
91.050926	1
91.051605	1
91.054276	203
91.057632	1
92.057625	15
94.534691	2
101.038658	10
101.540321	2
102.046455	13
102.548126	1
103.050133	1
103.054276	21
103.555931	2
104.057602	1
105.069939	78
106.073288	7
109.558212	3
115.054283	88
116.057671	7
116.062119	3
117.069908	50
118.073257	4
126.046516	6
127.054276	26
128.056488	2
128.057678	5
128.062073	367
128.066559	1
128.067703	2
128.069351	1
129.065536	38
129.069839	60
130.06897	2
130.073334	7
130.077652	2
131.085663	4
139.05423	5
141.069901	39
142.073303	4
142.077774	13
143.075058	2
143.076935	1
143.078812	5
143.080338	4
143.085526	821
143.090775	4
143.092148	5
143.094147	3
143.116852	2
144.088882	93
144.09346	3
144.09375	3
145.064774	5
145.09227	5
150.046539	2
151.054184	4
152.062042	22
153.065414	3
153.069901	3
155.060333	27
156.063705	3
157.101013	1
159.116821	13
160.119919	1
163.054138	6
164.061996	8
165.066025	2
165.069839	67
166.073227	9
166.077606	2
167.085205	2
176.062042	15
177.065369	2
177.069885	7
178.074356	2
178.077637	84
179.081024	13
179.08548	39
180.088913	5
187.054001	3
188.061996	3
189.069809	89
190.073105	12
190.077667	48
191.081146	7
191.085434	93
192.088745	13
192.093323	36
193.096588	5
193.101166	11
194.104416	2
200.06192	4
201.069855	6
202.077652	62
203.080902	8
203.08551	49
204.088715	7
204.093384	19
205.096634	2
205.101196	31
206.104309	4
206.109039	16
207.112228	2
207.11676	2
215.085541	3
217.101013	1
219.116699	1
220.124771	5
221.112305	2
221.115967	2
221.11969	7
221.122238	6
221.132385	999
221.142639	4
221.145111	7
221.148911	3
221.192444	1
222.122971	1
222.135742	176
222.148727	1
223.139175	16
236.155991	4
