Mass spectrum: PFBA; LC-ESI-FT; MS2; CE 20 eV; [M-H]-
Name: PFBA
Name: 2,2,3,3,4,4,4-heptafluorobutanoic acid
Class: Non-Natural Product; Per- and polyfluoroalkyl substances
Formula: C4HF7O2
Exact mass: 213.98647640
SMILES: C(=O)(C(C(C(F)(F)F)(F)F)(F)F)O
InChI: InChI=1S/C4HF7O2/c5-2(6,1(12)13)3(7,8)4(9,10)11/h(H,12,13)
Instrument: Vanquish LC, Thermo Scientific; Exploris 120 Orbitrap, Thermo Scientific
Instrument type: LC-ESI-FT
Ms type: MS2
Ion mode: NEGATIVE
Collision energy: 20 eV
Retention time: 4.32121957403819
Precursor m/z: 212.97946
Precursor type: [M-H]-
m/z	relative intensity
65.37526	114
98.22961	116
102.07416	147
102.20235	120
105.14290	125
131.91640	109
168.98914	999
197.99162	173
