Mass spectrum: HDEHP; LC-ESI-FT; MS2; CE 30% (nominal); [M-H]-
Name: HDEHP
Name: bis(2-ethylhexyl) hydrogen phosphate
Class: Non-Natural Product; OPFR metabolite
Formula: C16H35O4P
Exact mass: 322.22729659
SMILES: CCCCC(CC)COP(=O)(O)OCC(CC)CCCC
InChI: InChI=1S/C16H35O4P/c1-5-9-11-15(7-3)13-19-21(17,18)20-14-16(8-4)12-10-6-2/h15-16H,5-14H2,1-4H3,(H,17,18)
Instrument: Vanquish LC, Thermo Scientific; Exploris 120 Orbitrap, Thermo Scientific
Instrument type: LC-ESI-FT
Ms type: MS2
Ion mode: NEGATIVE
Collision energy: 30% (nominal)
Retention time: 9.65560956758658
Precursor m/z: 321.22009
Precursor type: [M-H]-
m/z	relative intensity
78.95893	78
209.09470	86
321.21991	999
322.22330	98
