Mass spectrum: XYLENOL; LC-ESI-QTOF; MS2; CE: 40 eV; [M-H]-
Name: XYLENOL
Name: TMBPF
Class: Non-Natural Product; Bisphenol
Formula: C17H20O2
Exact mass: 256.14633
SMILES: CC1=CC(=CC(=C1O)C)CC2=CC(=C(C(=C2)C)O)C
InChI: InChI=1S/C17H20O2/c1-10-5-14(6-11(2)16(10)18)9-15-7-12(3)17(19)13(4)8-15/h5-8,18-19H,9H2,1-4H3
Instrument: AGILENT 6546 LC/QToF
Instrument type: LC-ESI-QTOF
Ms type: MS2
Ion mode: NEGATIVE
Ionization: ESI
Collision energy: 40 eV
Precursor m/z: 255.13905
Precursor type: [M-H]-
m/z	relative intensity
59.01364	17
61.98839	17
72.04707	10
74.99006	15
79.0552	34
83.04983	19
91.05467	34
97.06629	10
103.05429	12
105.07102	999
105.07709	18
105.61226	10
106.07419	53
107.04994	9
107.07798	32
111.00895	10
118.04207	112
119.04974	52
120.05746	134
121.06594	798
121.07381	34
122.06968	72
132.05882	12
133.06578	107
134.07028	38
137.09996	10
151.07659	20
152.11611	11
154.94849	11
161.09578	11
168.96325	16
185.09796	29
199.07417	16
209.09822	26
210.10801	25
211.11214	21
212.11607	24
222.06695	12
223.07506	55
224.08177	13
226.13329	13
227.09764	16
236.08371	10
237.0911	63
237.12677	12
237.13252	12
238.09723	11
238.10206	27
238.13246	12
239.10761	234
240.11052	17
251.10679	16
252.11527	63
253.12292	615
253.13142	30
253.41626	17
253.97741	14
254.12676	263
255.12246	51
255.13909	545
256.14266	219
256.14806	29
275.89718	25
568.61052	18
660.68051	10
727.82074	23
759.973	17
759.99427	16
800.97966	15
858.28445	16
983.14723	12
1096.00439	16
