Mass spectrum: DFAQ; GC-EI-FT; MS; POSITIVE; CE 40 eV
Name: DFAQ
Name: 1,4-difluoroanthracene-9,10-dione
Class: Non-Natural Product; Semi-volatile organic contaminants (SVOCs)
Formula: C14H6F2O2
Exact mass: 244.03358575
SMILES: C1=CC=C2C(=C1)C(=O)C3=C(C=CC(=C3C2=O)F)F
InChI: InChI=1S/C14H6F2O2/c15-9-5-6-10(16)12-11(9)13(17)7-3-1-2-4-8(7)14(12)18/h1-6H
Instrument: Trace 1310 GC, Thermo Scientific; Q Exactive Orbitrap, Thermo Scientific
Instrument type: GC-EI-FT
Ms type: MS
Ion mode: POSITIVE
Collision energy: 40 eV
Retention time: 12.232
Base peak: 188.043076
m/z	relative intensity
74.015114	35
75.022964	27
76.030769	35
94.021309	101
98.015114	26
108.018776	28
111.022926	32
112.011871	92
138.027557	53
141.013489	31
142.021362	28
147.022903	34
157.0448	38
162.027435	176
167.029053	133
168.03685	362
169.040298	49
169.044739	62
186.02742	172
187.035233	184
188.043076	999
189.046448	130
215.030273	25
215.041473	80
216.03801	592
217.041473	84
225.034653	30
243.025269	81
243.036545	33
244.032974	397
245.036499	59
