Mass spectrum: TETRACHLOROETHYLENE; GC-EI-QTOF; MS; CE 70 V
Name: TETRACHLOROETHYLENE
Name: Perchloroethylene
Class: Non-Natural Product
Formula: C2Cl4
Exact mass: 163.87541072
SMILES: ClC(Cl)=C(Cl)Cl
InChI: InChI=1S/C2Cl4/c3-1(4)2(5)6
Instrument: Agilent 7250 GC/QTOF
Instrument type: GC-EI-QTOF
Ms type: MS
Ion mode: POSITIVE
Ionization: EI
Collision energy: 70 V
Retention time: 20.2
m/z	relative intensity
34.9683046164865	45
36.9653756973981	17
46.9683221891219	280
48.9653920708238	85
58.9683927691229	236
60.9653569996566	73
81.9371364395128	90
82.9357092711092	24
83.9340200464223	53
93.937257373007	430
95.9341936274926	252
97.9310533323286	42
128.906042323017	824
129.908828245932	18
130.90299393579	745
131.906074097647	17
132.899852289345	225
134.897160655684	22
163.874802225876	772
164.878101515255	18
165.871846635493	999
166.874947475283	23
167.868785370555	458
168.872309090288	10
169.865639147844	92
