Mass spectrum: PFHxA; LC-ESI-FT; MS2; CE 10 eV; [M-H]-
Name: PFHxA
Name: 2,2,3,3,4,4,5,5,6,6,6-undecafluorohexanoic acid
Class: Non-Natural Product; Perfluoroalkyl carboxylic acid
Formula: C6HF11O2
Exact mass: 313.98008905
SMILES: C(=O)(C(C(C(C(C(F)(F)F)(F)F)(F)F)(F)F)(F)F)O
InChI: InChI=1S/C6HF11O2/c7-2(8,1(18)19)3(9,10)4(11,12)5(13,14)6(15,16)17/h(H,18,19)
Instrument: Vanquish LC, Thermo Scientific; Exploris 120 Orbitrap, Thermo Scientific
Instrument type: LC-ESI-FT
Ms type: MS2
Ion mode: NEGATIVE
Collision energy: 10 eV
Retention time: 5.20409339927038
Precursor m/z: 312.97333
Precursor type: [M-H]-
m/z	relative intensity
59.01369	10
68.99577	11
204.97099	12
226.70030	42
252.99945	18
268.98297	999
294.88937	27
312.97504	43
313.16458	28
313.20413	13
