Mass spectrum: N-MeFOSA; LC-ESI-FT; MS2; CE 20 eV; [M-H]-
Name: N-MeFOSA
Name: 1,1,2,2,3,3,4,4,5,5,6,6,7,7,8,8,8-heptadecafluoro-N-methyloctane-1-sulfonamide
Class: Non-Natural Product; Per- and polyfluoroalkyl substances
Formula: C9H4F17NO2S
Exact mass: 512.9691283
SMILES: CNS(=O)(=O)C(C(C(C(C(C(C(C(F)(F)F)(F)F)(F)F)(F)F)(F)F)(F)F)(F)F)(F)F
InChI: InChI=1S/C9H4F17NO2S/c1-27-30(28,29)9(25,26)7(20,21)5(16,17)3(12,13)2(10,11)4(14,15)6(18,19)8(22,23)24/h27H,1H3
Instrument: Vanquish LC, Thermo Scientific; Exploris 120 Orbitrap, Thermo Scientific
Instrument type: LC-ESI-FT
Ms type: MS2
Ion mode: NEGATIVE
Collision energy: 20 eV
Retention time: 9.08868797483444
Precursor m/z: 511.96210
Precursor type: [M-H]-
m/z	relative intensity
168.98917	999
