Mass spectrum: Decabromodiphenylethane; EI-QTOF; MS; CE 70 V
Name: Decabromodiphenylethane
Name: DBDPE
Formula: C14H4Br10
Exact mass: 961.2146791276
SMILES: C(CC1=C(C(=C(C(=C1Br)Br)Br)Br)Br)C2=C(C(=C(C(=C2Br)Br)Br)Br)Br
InChI: InChI=1S/C14H4Br10/c15-5-3(6(16)10(20)13(23)9(5)19)1-2-4-7(17)11(21)14(24)12(22)8(4)18/h1-2H2
Instrument: Agilent 7200 GC/QTOF
Instrument type: GC-EI-QTOF
Ms type: MS
Ion mode: POSITIVE
Ionization: EI
Collision energy: 70 V
Retention time: 23.02
m/z	relative intensity
43.0548109809719	61
43.9899725697385	126
71.0854282953033	53
73.0469644102212	113
77.0386335439908	70
78.9179128918916	57
79.9253206919126	136
80.9158260615365	58
81.9237959636504	131
85.0074573961285	109
86.014796106006	225
87.0233174041581	116
96.0041905194711	126
98.0146454891251	85
118.997706563828	52
133.013579164589	123
135.062483809864	109
135.087481662012	93
149.014500483618	59
156.005653936162	94
162.969664268081	54
164.934188619915	317
165.934290592392	113
166.932456928586	332
167.936550387445	56
171.022168206649	55
172.029623786405	112
174.045770877057	65
191.001309720464	113
206.896887523742	57
208.033571364993	345
243.851441756805	66
244.851803044537	86
245.850780568031	151
246.856213866573	129
247.852442650589	78
248.988939063691	133
249.038565120968	68
251.048617871443	66
253.017079808622	250
253.958815910955	55
255.06711957589	74
265.020187004029	64
265.077888457455	71
268.087035968109	52
281.052252787554	235
282.052447269853	68
283.049965168649	77
322.768965430871	104
324.768979799317	328
325.775254320246	87
326.769506699861	339
326.969796372923	63
327.035623074137	168
327.7751888446	85
328.09711492635	62
328.773768864281	129
331.867738662649	93
332.065291463164	129
333.875506875223	56
346.087317284176	78
402.694191415374	62
403.065918134278	69
403.685858796953	212
404.692769008238	261
405.08316220467	91
405.148123070926	119
405.685981246621	297
406.084341061123	88
406.692897393143	393
407.68528664975	194
408.6905918109	204
409.687867455398	62
409.782910774669	60
411.78482275686	93
413.789959024649	59
479.10089440903	53
480.61073082015	90
482.606198701304	467
483.606315951367	52
484.604314687299	974
485.605243980615	73
486.601778957887	999
487.602164102923	70
488.59982784773	493
489.698457462824	74
490.598811865477	92
491.707200286922	90
493.709871357473	62
571.625344892684	65
572.625593117195	52
651.546177253075	63
653.547307787539	72
655.543897803867	61
730.453888872004	61
732.453912201225	64
809.370172752906	57
811.375352248263	69
813.375952370941	63
971.212778430111	56
