Mass spectrum: 3,7-dimethyl-PFOA; LC-ESI-FT; MS2; CE 10 eV; [M-H]-
Name: 3,7-dimethyl-PFOA
Name: 2,2,3,4,4,5,5,6,6,7,8,8,8-tridecafluoro-3,7-bis(trifluoromethyl)octanoic acid
Class: Non-Natural Product; Per- and polyfluoroalkyl substances
Formula: C10HF19O2
Exact mass: 513.9673143
SMILES: C(=O)(C(C(C(C(C(C(C(F)(F)F)(C(F)(F)F)F)(F)F)(F)F)(F)F)(C(F)(F)F)F)(F)F)O
InChI: InChI=1S/C10HF19O2/c11-2(12,1(30)31)3(13,8(21,22)23)5(15,16)7(19,20)6(17,18)4(14,9(24,25)26)10(27,28)29/h(H,30,31)
Instrument: Vanquish LC, Thermo Scientific; Exploris 120 Orbitrap, Thermo Scientific
Instrument type: LC-ESI-FT
Ms type: MS2
Ion mode: NEGATIVE
Collision energy: 10 eV
Retention time: 6.76131659212112
Precursor m/z: 512.96033
Precursor type: [M-H]-
m/z	relative intensity
226.70837	34
268.98288	55
468.97025	999
512.96210	22
