Mass spectrum: 2,2-DIHYDROXY-4-METHOXY-BENZOPHENONE; LC-ESI-QTOF; MS2; CE: 40 eV; [M-H]-
Name: 2,2'-DIHYDROXY-4-METHOXY-BENZOPHENONE
Name: Dioxybenzone
Class: Non-Natural Product; Bisphenol
Formula: C14H12O4
Exact mass: 244.073558864
SMILES: COC1=CC(O)=C(C=C1)C(=O)C1=CC=CC=C1O
InChI: InChI=1S/C14H12O4/c1-18-9-6-7-11(13(16)8-9)14(17)10-4-2-3-5-12(10)15/h2-8,15-16H,1H3
Instrument: AGILENT 6546 LC/QToF
Instrument type: LC-ESI-QTOF
Ms type: MS2
Ion mode: NEGATIVE
Ionization: ESI
Collision energy: 40 eV
Precursor m/z: 243.06628
Precursor type: [M-H]-
m/z	relative intensity
65.03939	11
80.02658	88
93.03457	999
94.0379	82
108.02169	700
109.02506	63
123.04516	96
124.04862	10
210.03228	14
