Mass spectrum: TCAz; GC-EI-FT; MS; POSITIVE; CE 40 eV
Name: TCAz
Name: bis(3,4-dichlorophenyl)diazene
Class: Non-Natural Product; Semi-volatile organic contaminants (SVOCs)
Formula: C12H6Cl4N2
Exact mass: 319.925559
SMILES: C1=CC(=C(C=C1N=NC2=CC(=C(C=C2)Cl)Cl)Cl)Cl
InChI: InChI=1S/C12H6Cl4N2/c13-9-3-1-7(5-11(9)15)17-18-8-2-4-10(14)12(16)6-8/h1-6H
Instrument: Trace 1310 GC, Thermo Scientific; Q Exactive Orbitrap, Thermo Scientific
Instrument type: GC-EI-FT
Ms type: MS
Ion mode: POSITIVE
Collision energy: 40 eV
Retention time: 13.886
Base peak: 172.96669
m/z	relative intensity
74.015076	79
75.022919	73
83.976143	20
84.983955	18
86.963234	19
96.983978	16
108.983917	263
109.98732	20
109.99176	52
110.980942	99
111.988815	18
123.994865	32
126.994492	25
128.002319	23
144.960571	75
146.957642	49
160.979294	40
162.971146	30
162.976334	26
164.968216	21
172.96669	999
173.970062	66
174.96373	627
175.967133	45
176.960754	104
207.032349	18
219.984116	17
317.927826	30
319.924896	40
321.921967	18
