Mass spectrum: N-MeFOSAA; LC-ESI-FT; MS2; CE 10 eV; [M-H]-
Name: N-MeFOSAA
Name: 2-[1,1,2,2,3,3,4,4,5,5,6,6,7,7,8,8,8-heptadecafluorooctylsulfonyl(methyl)amino]acetic acid
Class: Non-Natural Product; Per- and polyfluoroalkyl substances
Formula: C11H6F17NO4S
Exact mass: 570.9746076
SMILES: CN(CC(=O)O)S(=O)(=O)C(C(C(C(C(C(C(C(F)(F)F)(F)F)(F)F)(F)F)(F)F)(F)F)(F)F)(F)F
InChI: InChI=1S/C11H6F17NO4S/c1-29(2-3(30)31)34(32,33)11(27,28)9(22,23)7(18,19)5(14,15)4(12,13)6(16,17)8(20,21)10(24,25)26/h2H2,1H3,(H,30,31)
Instrument: Vanquish LC, Thermo Scientific; Exploris 120 Orbitrap, Thermo Scientific
Instrument type: LC-ESI-FT
Ms type: MS2
Ion mode: NEGATIVE
Collision energy: 10 eV
Retention time: 7.29609452349345
Precursor m/z: 569.96802
Precursor type: [M-H]-
m/z	relative intensity
418.97232	22
482.93533	73
511.96118	20
569.96759	999
