Mass spectrum: TCAzO; GC-EI-FT; MS; POSITIVE; CE 40 eV
Name: TCAzO
Name: (3,4-dichlorophenyl)-(3,4-dichlorophenyl)imino-oxidoazanium
Class: Non-Natural Product; Semi-volatile organic contaminants (SVOCs)
Formula: C12H6Cl4N2O
Exact mass: 335.920473
SMILES: C1=CC(=C(C=C1N=[N+](C2=CC(=C(C=C2)Cl)Cl)[O-])Cl)Cl
InChI: InChI=1S/C12H6Cl4N2O/c13-9-3-1-7(5-11(9)15)17-18(19)8-2-4-10(14)12(16)6-8/h1-6H
Instrument: Trace 1310 GC, Thermo Scientific; Q Exactive Orbitrap, Thermo Scientific
Instrument type: GC-EI-FT
Ms type: MS
Ion mode: POSITIVE
Collision energy: 40 eV
Retention time: 14.85
Base peak: 172.966736
m/z	relative intensity
72.984009	15
73.04686	18
74.015114	80
75.022964	71
83.976158	18
84.983978	16
86.963257	19
88.018204	18
90.033875	13
91.05426	12
96.984001	34
98.999626	12
108.983925	279
109.98735	19
109.991814	46
110.980995	99
111.988846	15
123.994835	161
125.002724	13
125.991928	53
126.010536	12
126.994507	29
128.00235	25
132.960663	44
133.013596	22
134.957703	30
144.960632	68
146.957687	45
151.024139	13
158.963715	42
159.971542	12
160.960754	26
160.97934	74
162.971237	33
162.976379	46
164.968277	22
171.971497	13
172.966736	999
173.970184	63
174.963745	627
175.967209	43
176.960846	104
191.001053	26
207.032349	106
208.031891	16
209.011642	20
219.984161	13
225.042984	42
235.990356	15
281.051331	15
317.927979	21
319.924988	28
321.922028	15
