Mass spectrum: TFA; LC-ESI-FT; MS2; CE 10 eV; [M-H]-
Name: TFA
Name: 2,2,2-trifluoroacetic acid
Class: Non-Natural Product; Short-chained per- and polyfluoroalkyl substances (PFAS)
Formula: C2HF3O2
Exact mass: 113.99286376
SMILES: C(=O)(C(F)(F)F)O
InChI: InChI=1S/C2HF3O2/c3-2(4,5)1(6)7/h(H,6,7)
Instrument: Vanquish LC, Thermo Scientific; Exploris 120 Orbitrap, Thermo Scientific
Instrument type: LC-ESI-FT
Ms type: MS2
Ion mode: NEGATIVE
Collision energy: 10 eV
Retention time: 11.3411980357011
Precursor m/z: 112.98521
Precursor type: [M-H]-
m/z	relative intensity
54.04460	2
59.26215	2
68.95385	2
68.99556	999
112.98531	117
