Mass spectrum: MPT; GC-EI-FT; MS; POSITIVE; CE 40 eV
Name: MPT
Name: 4-methoxy-2-methyl-N-phenylaniline
Class: Non-Natural Product; Semi-volatile organic contaminants (SVOCs)
Formula: C14H15NO
Exact mass: 213.115364102
SMILES: CC1=C(C=CC(=C1)OC)NC2=CC=CC=C2
InChI: InChI=1S/C14H15NO/c1-11-10-13(16-2)8-9-14(11)15-12-6-4-3-5-7-12/h3-10,15H,1-2H3
Instrument: Trace 1310 GC, Thermo Scientific; Q Exactive Orbitrap, Thermo Scientific
Instrument type: GC-EI-FT
Ms type: MS
Ion mode: POSITIVE
Collision energy: 40 eV
Retention time: 11.381
Base peak: 198.091217
m/z	relative intensity
65.038605	8
77.038567	39
78.04644	8
83.536232	15
91.054237	9
92.049492	6
93.057335	9
103.041664	6
103.054237	7
115.054245	30
117.057312	9
127.054253	9
128.049484	20
128.062012	70
129.06543	9
129.069885	7
130.065155	42
139.054245	10
140.049484	8
141.06987	15
142.065155	9
142.077713	9
143.072952	9
143.085526	46
152.062042	20
153.06987	16
154.065002	128
155.060349	13
155.068481	15
155.072861	88
156.076324	10
166.065125	19
167.072845	106
168.07634	14
168.080688	79
169.084137	10
169.088577	16
170.09639	36
180.080673	84
181.084091	11
181.088577	12
182.060059	14
183.067841	19
196.075684	22
197.08345	13
198.091217	999
198.096558	8
199.094528	146
200.098022	8
210.091309	14
212.106995	10
213.1147	543
214.118088	86
