Mass spectrum: FOSA; LC-ESI-FT; MS2; CE 20 eV; [M-H]-
Name: FOSA
Name: 1,1,2,2,3,3,4,4,5,5,6,6,7,7,8,8,8-heptadecafluorooctane-1-sulfonamide
Class: Non-Natural Product; Per- and polyfluoroalkyl substances
Formula: C8H2F17NO2S
Exact mass: 498.9534782
SMILES: C(C(C(C(C(F)(F)S(=O)(=O)N)(F)F)(F)F)(F)F)(C(C(C(F)(F)F)(F)F)(F)F)(F)F
InChI: InChI=1S/C8H2F17NO2S/c9-1(10,3(13,14)5(17,18)7(21,22)23)2(11,12)4(15,16)6(19,20)8(24,25)29(26,27)28/h(H2,26,27,28)
Instrument: Vanquish LC, Thermo Scientific; Exploris 120 Orbitrap, Thermo Scientific
Instrument type: LC-ESI-FT
Ms type: MS2
Ion mode: NEGATIVE
Collision energy: 20 eV
Retention time: 7.53151972554525
Precursor m/z: 497.94650
Precursor type: [M-H]-
m/z	relative intensity
77.96540	999
