Mass spectrum: PFPeA; LC-ESI-FT; MS2; CE 20 eV; [M-H]-
Name: PFPeA
Name: 2,2,3,3,4,4,5,5,5-nonafluoropentanoic acid
Class: Non-Natural Product; Per- and polyfluoroalkyl substances
Formula: C5HF9O2
Exact mass: 263.98328273
SMILES: C(=O)(C(C(C(C(F)(F)F)(F)F)(F)F)(F)F)O
InChI: InChI=1S/C5HF9O2/c6-2(7,1(15)16)3(8,9)4(10,11)5(12,13)14/h(H,15,16)
Instrument: Vanquish LC, Thermo Scientific; Exploris 120 Orbitrap, Thermo Scientific
Instrument type: LC-ESI-FT
Ms type: MS2
Ion mode: NEGATIVE
Collision energy: 20 eV
Retention time: 5.0078975028038
Precursor m/z: 262.97626
Precursor type: [M-H]-
m/z	relative intensity
50.87041	454
62.82655	424
62.98863	714
64.84853	463
68.99592	635
70.10966	467
74.28722	416
125.39301	521
127.49557	412
179.86922	520
218.98470	856
226.68628	999
226.71558	734
