Mass spectrum: PFTrDA; LC-ESI-FT; MS2; CE 20 eV; [M-H]-
Name: PFTrDA
Name: 2,2,3,3,4,4,5,5,6,6,7,7,8,8,9,9,10,10,11,11,12,12,13,13,13-pentacosafluorotridecanoic acid
Class: Non-Natural Product; Per- and polyfluoroalkyl substances
Formula: C13HF25O2
Exact mass: 663.9577333
SMILES: C(=O)(C(C(C(C(C(C(C(C(C(C(C(C(F)(F)F)(F)F)(F)F)(F)F)(F)F)(F)F)(F)F)(F)F)(F)F)(F)F)(F)F)(F)F)O
InChI: InChI=1S/C13HF25O2/c14-2(15,1(39)40)3(16,17)4(18,19)5(20,21)6(22,23)7(24,25)8(26,27)9(28,29)10(30,31)11(32,33)12(34,35)13(36,37)38/h(H,39,40)
Instrument: Vanquish LC, Thermo Scientific; Exploris 120 Orbitrap, Thermo Scientific
Instrument type: LC-ESI-FT
Ms type: MS2
Ion mode: NEGATIVE
Collision energy: 20 eV
Retention time: 7.88264718018373
Precursor m/z: 662.95129
Precursor type: [M-H]-
m/z	relative intensity
118.99268	31
168.98909	420
218.98595	430
226.68597	10
268.98291	429
318.97974	480
368.97629	432
418.97302	198
419.04456	12
468.97028	26
618.96082	999
