Mass spectrum: MEP; LC-ESI-FT; MS2; CE Ramp 10-30 kV; [M-H]-
Name: MEP
Name: 2-ethoxycarbonylbenzoic acid
Class: Non-Natural Product; Phthalate metabolite
Formula: C10H10O4
Exact mass: 194.05790880
SMILES: CCOC(=O)C1=CC=CC=C1C(=O)O
InChI: InChI=1S/C10H10O4/c1-2-14-10(13)8-6-4-3-5-7(8)9(11)12/h3-6H,2H2,1H3,(H,11,12)
Instrument: Vanquish LC, Thermo Scientific; Exploris 120 Orbitrap, Thermo Scientific
Instrument type: LC-ESI-FT
Ms type: MS2
Ion mode: NEGATIVE
Collision energy: Ramp 10-30 kV
Retention time: 4.02398594083786
Precursor m/z: 193.05038
Precursor type: [M-H]-
m/z	relative intensity
75.02410	999
