Mass spectrum: PFUnDS; LC-ESI-FT; MS2; CE 10 eV; [M-H]-
Name: PFUnDS
Name: 1,1,2,2,3,3,4,4,5,5,6,6,7,7,8,8,9,9,10,10,11,11,11-tricosafluoroundecane-1-sulfonic acid
Class: Non-Natural Product; Perfluoroalkyl sulfonic acid
Formula: C11HF23O3S
Exact mass: 649.9279128
SMILES: C(C(C(C(C(C(F)(F)F)(F)F)(F)F)(F)F)(F)F)(C(C(C(C(C(F)(F)S(=O)(=O)O)(F)F)(F)F)(F)F)(F)F)(F)F
InChI: InChI=1S/C11HF23O3S/c12-1(13,2(14,15)4(18,19)6(22,23)8(26,27)10(30,31)32)3(16,17)5(20,21)7(24,25)9(28,29)11(33,34)38(35,36)37/h(H,35,36,37)
Instrument: Vanquish LC, Thermo Scientific; Exploris 120 Orbitrap, Thermo Scientific
Instrument type: LC-ESI-FT
Ms type: MS2
Ion mode: NEGATIVE
Collision energy: 10 eV
Retention time: 8.09005496563911
Precursor m/z: 648.92108
Precursor type: [M-H]-
m/z	relative intensity
648.92078	999
