Mass spectrum: PFMeS; LC-ESI-FT; MS2; CE 20 eV; [M-H]-
Name: PFMeS
Name: trifluoromethanesulfonic acid
Class: Non-Natural Product; Short-chained per- and polyfluoroalkyl substances (PFAS)
Formula: CHF3O3S
Exact mass: 149.95984955
SMILES: C(F)(F)(F)S(=O)(=O)O
InChI: InChI=1S/CHF3O3S/c2-1(3,4)8(5,6)7/h(H,5,6,7)
Instrument: Vanquish LC, Thermo Scientific; Exploris 120 Orbitrap, Thermo Scientific
Instrument type: LC-ESI-FT
Ms type: MS2
Ion mode: NEGATIVE
Collision energy: 20 eV
Retention time: 8.41527908307711
Precursor m/z: 148.95227
Precursor type: [M-H]-
m/z	relative intensity
68.99551	31
79.95716	999
82.96062	35
98.95555	104
148.95227	253
