Mass spectrum: 26DCBN; GC-EI-FT; MS; POSITIVE; CE 40 eV
Name: 26DCBN
Name: 2,6-dichlorobenzonitrile
Class: Non-Natural Product; Semi-volatile organic contaminants (SVOCs)
Formula: C7H3Cl2N
Exact mass: 170.9642545
SMILES: C1=CC(=C(C(=C1)Cl)C#N)Cl
InChI: InChI=1S/C7H3Cl2N/c8-6-2-1-3-7(9)5(6)4-10/h1-3H
Instrument: Trace 1310 GC, Thermo Scientific; Q Exactive Orbitrap, Thermo Scientific
Instrument type: GC-EI-FT
Ms type: MS
Ion mode: POSITIVE
Collision energy: 40 eV
Retention time: 7.968
Base peak: 170.963623
m/z	relative intensity
60.983986	2
61.007309	2
63.022972	3
67.493279	2
71.976166	3
72.984009	6
73.007332	7
74.015121	34
74.981056	2
75.010384	44
75.02298	14
76.013741	2
76.018211	11
83.976166	16
84.983978	12
85.481606	2
85.97319	6
85.979218	4
86.981033	4
87.010376	2
87.04409	9
88.018211	2
97.97924	2
98.002533	2
99.010345	56
100.013741	4
100.018112	159
101.021576	13
101.026062	3
106.944984	3
107.976151	7
108.942101	2
108.971428	8
108.984001	24
109.973236	2
109.97924	12
109.991821	19
110.968452	3
110.981033	8
110.987061	3
111.97625	5
111.988853	6
118.028755	13
119.952866	3
121.949875	2
121.979248	2
125.002708	3
126.010544	2
132.97139	2
133.979233	10
134.98703	30
135.976303	4
135.99057	2
135.994873	48
136.984131	9
136.998215	4
137.991943	17
143.95282	16
144.948105	2
145.949875	11
152.997635	2
154.005402	7
156.002472	2
164.000839	151
164.998138	2
165.004349	10
165.998032	55
167.001389	4
170.949066	2
170.957916	2
170.963623	999
170.966934	6
170.967941	7
170.97049	2
171.960831	4
171.96698	76
172.956177	2
172.960709	603
172.964249	2
172.965118	3
172.97023	2
173.957901	2
173.964096	50
174.957718	105
175.961166	8
