Mass spectrum: DCFd; GC-EI-FT; MS; POSITIVE; CE 40 eV
Name: DCFd
Name: N-[dichloro(fluoro)methyl]sulfanyl-N-(dimethylsulfamoyl)aniline
Class: Non-Natural Product; Semi-volatile organic contaminants (SVOCs)
Formula: C9H11Cl2FN2O2S2
Exact mass: 331.9623035
SMILES: CN(C)S(=O)(=O)N(C1=CC=CC=C1)SC(F)(Cl)Cl
InChI: InChI=1S/C9H11Cl2FN2O2S2/c1-13(2)18(15,16)14(17-9(10,11)12)8-6-4-3-5-7-8/h3-7H,1-2H3
Instrument: Trace 1310 GC, Thermo Scientific; Q Exactive Orbitrap, Thermo Scientific
Instrument type: GC-EI-FT
Ms type: MS
Ion mode: POSITIVE
Collision energy: 40 eV
Retention time: 11.676
Base peak: 123.013748
m/z	relative intensity
62.96999	25
63.022999	13
64.03083	12
65.038651	26
77.038605	65
78.042	5
78.940437	7
80.049522	10
90.033897	5
91.041695	49
92.016479	74
92.049522	41
93.057388	16
94.065201	15
96.002861	50
97.010727	14
97.938843	45
99.935883	15
100.935654	7
102.932678	6
105.044815	6
108.011414	49
109.010742	10
110.005959	7
110.016792	54
112.01384	18
121.088669	15
122.00592	71
123.009338	5
123.011086	5
123.013748	999
124.013229	9
124.017151	69
124.021622	64
125.009605	43
132.90773	5
133.076111	12
134.005966	5
135.091736	22
138.000885	7
153.004379	15
154.012085	144
155.015518	11
156.00798	8
167.06369	372
168.067169	34
169.059616	19
169.982635	10
187.973221	8
188.981033	47
190.978195	15
199.05365	5
200.061478	46
223.949768	231
224.953339	16
224.957855	5
225.94693	140
226.950363	10
227.944138	20
331.961853	6
333.958771	5
