Mass spectrum: TFA; LC-ESI-FT; MS2; CE 20 eV; [M-H]-
Name: TFA
Name: 2,2,2-trifluoroacetic acid
Class: Non-Natural Product; Short-chained per- and polyfluoroalkyl substances (PFAS)
Formula: C2HF3O2
Exact mass: 113.99286376
SMILES: C(=O)(C(F)(F)F)O
InChI: InChI=1S/C2HF3O2/c3-2(4,5)1(6)7/h(H,6,7)
Instrument: Vanquish LC, Thermo Scientific; Exploris 120 Orbitrap, Thermo Scientific
Instrument type: LC-ESI-FT
Ms type: MS2
Ion mode: NEGATIVE
Collision energy: 20 eV
Retention time: 11.3964948004723
Precursor m/z: 112.98528
Precursor type: [M-H]-
m/z	relative intensity
58.00621	6
68.99555	999
77.52711	5
80.68652	5
105.58575	5
