Mass spectrum: DCDMB; GC-EI-FT; MS; POSITIVE; CE 40 eV
Name: DCDMB
Name: 1,4-dichloro-2,5-dimethoxybenzene
Class: Non-Natural Product; Semi-volatile organic contaminants (SVOCs)
Formula: C8H8Cl2O2
Exact mass: 205.9901349
SMILES: COC1=CC(=C(C=C1Cl)OC)Cl
InChI: InChI=1S/C8H8Cl2O2/c1-11-7-3-6(10)8(12-2)4-5(7)9/h3-4H,1-2H3
Instrument: Trace 1310 GC, Thermo Scientific; Q Exactive Orbitrap, Thermo Scientific
Instrument type: GC-EI-FT
Ms type: MS
Ion mode: POSITIVE
Collision energy: 40 eV
Retention time: 9.03
Base peak: 190.966003
m/z	relative intensity
51.496197	5
53.002243	12
59.976173	10
62.015152	10
62.963253	21
63.022961	14
64.960304	7
72.983994	11
74.015121	9
75.022964	17
77.038589	15
83.976158	7
84.98394	79
86.963242	11
86.981026	27
87.971054	12
95.976112	5
96.983971	67
97.991806	11
98.981018	20
98.999611	43
100.996681	13
108.983986	12
110.999619	14
112.007423	9
112.97879	287
112.996643	7
113.982254	18
114.975899	93
115.979294	5
119.95282	54
121.94986	35
123.946953	5
125.98671	30
126.99453	5
127.983757	10
131.95282	19
132.960648	9
133.949875	12
134.957687	7
139.005768	12
140.973679	210
141.977158	15
142.018036	6
142.970825	68
143.974197	5
146.939896	6
147.947708	44
149.944778	32
151.941818	5
155.997223	9
159.947723	15
161.944733	10
162.971039	215
163.974518	13
164.968155	135
165.971573	10
166.965286	21
190.966003	999
190.9711	6
191.969391	76
192.963074	608
193.966507	49
194.960159	99
195.963593	7
205.989471	475
206.992935	45
207.986481	321
208.990005	28
209.983688	53
