Mass spectrum: 3-Cyclohexyl-1,1-dimethylurea; LC-ESI-QFT; MS2; CE: 30%; R=35000; [M+H]+
Name: 3-Cyclohexyl-1,1-dimethylurea
Formula: C9H18N2O
Exact mass: 170.141913196
SMILES: CN(C)C(=O)NC1CCCCC1
InChI: InChI=1S/C9H18N2O/c1-11(2)9(12)10-8-6-4-3-5-7-8/h8H,3-7H2,1-2H3,(H,10,12)
Instrument: QExactive Plus Thermo Scientific
Instrument type: LC-ESI-QFT
Ms type: MS2
Ion mode: POSITIVE
Ionization: ESI
Fragmentation mode: CID
Collision energy: 30 % (nominal)
Resolution: 35000
Column name: Kinetex EVO 2.6 um, 50 x 2.1 mm (Phenomenex)
Retention time: 8.012 min
Base peak: 164.1068
Precursor m/z: 171.1492
Precursor type: [M+H]+
Precursor intensity: 164436241.4
m/z	relative intensity	assigned
55.0545	2	C4H7+
72.0402	1	
72.0443	197	C3H6NO+
72.0484	1	
83.0855	39	C6H11+
89.0651	3	
89.0709	469	C3H9N2O+
89.0754	3	
89.0766	3	
171.1294	2	
171.1338	6	
171.1369	3	
171.1492	999	C9H19N2O+
171.1613	7	
171.1643	6	
171.1689	2	
171.1734	1	
