Mass spectrum: Dicyclohexylurea; LC-ESI-QFT; MS2; CE: 30%; R=35000; [M+H]+
Name: Dicyclohexylurea
Formula: C13H24N2O
Exact mass: 224.188863388
SMILES: O=C(NC1CCCCC1)NC1CCCCC1
InChI: InChI=1S/C13H24N2O/c16-13(14-11-7-3-1-4-8-11)15-12-9-5-2-6-10-12/h11-12H,1-10H2,(H2,14,15,16)
Instrument: QExactive Plus Thermo Scientific
Instrument type: LC-ESI-QFT
Ms type: MS2
Ion mode: POSITIVE
Ionization: ESI
Fragmentation mode: CID
Collision energy: 30 % (nominal)
Resolution: 35000
Column name: Kinetex EVO 2.6 um, 50 x 2.1 mm (Phenomenex)
Retention time: 11.269 min
Base peak: 225.1958
Precursor m/z: 225.1961
Precursor type: [M+H]+
Precursor intensity: 259131355.27
m/z	relative intensity	assigned
55.0545	3	C4H7+
56.2976	2	
61.0396	41	CH5N2O+
83.0855	63	C6H11+
100.1032	1	
100.1052	4	
100.1067	3	
100.112	613	C6H14N+
100.1174	3	
100.1189	3	
100.1209	1	
143.1178	115	C7H15N2O+
225.1597	1	
225.1661	1	
225.1731	8	
225.1776	6	
225.196	999	C13H25N2O+
225.2143	4	
225.2193	5	
225.2259	2	
