Mass spectrum: 6PPDQ; LC-ESI-QFT; MS2; CE: 30%; R=35000; [M+H]+
Name: 6PPDQ
Formula: C18H22N2O2
Exact mass: 298.168127944
SMILES: CC(C)CC(C)NC1=CC(=O)C(NC2=CC=CC=C2)=CC1=O
InChI: InChI=1S/C18H22N2O2/c1-12(2)9-13(3)19-15-10-18(22)16(11-17(15)21)20-14-7-5-4-6-8-14/h4-8,10-13,19-20H,9H2,1-3H3
Instrument: QExactive Plus Thermo Scientific
Instrument type: LC-ESI-QFT
Ms type: MS2
Ion mode: POSITIVE
Ionization: ESI
Fragmentation mode: CID
Collision energy: 30 % (nominal)
Resolution: 35000
Column name: Kinetex EVO 2.6 um, 50 x 2.1 mm (Phenomenex)
Retention time: 12.773 min
Base peak: 299.1752
Precursor m/z: 299.1754
Precursor type: [M+H]+
Precursor intensity: 156650260.32
m/z	relative intensity	assigned
53.769	1	
57.0698	8	C4H9+
58.0651	10	C3H8N+
74.7922	2	
83.0854	1	C6H11+
84.0808	4	C5H10N+
85.1011	17	C6H13+
93.0573	2	C6H7N+
94.0651	22	C6H8N+
98.0964	1	C6H12N+
100.112	78	C6H14N+
109.0284	1	C6H5O2+
123.0439	2	C7H7O2+
124.0392	1	C6H6NO2+
146.06	1	C9H8NO+
150.0549	9	C8H8NO2+
154.0651	1	C11H8N+
164.0705	5	C9H10NO2+
165.091	2	C10H13O2+
170.06	9	C11H8NO+
172.0756	9	C11H10NO+
182.0603	2	C12H8NO+
187.0692	1	
187.0865	155	C11H11N2O+
187.1039	1	
198.0549	10	C12H8NO2+
198.0914	1	C13H12NO+
199.0867	1	C12H11N2O+
200.0705	61	C12H10NO2+
201.0784	20	C12H11NO2+
202.0862	8	C12H12NO2+
206.1175	13	C12H16NO2+
214.0738	2	C12H10N2O2+
215.0539	1	
215.06	3	
215.0644	3	
215.0815	468	C12H11N2O2+
215.0989	1	
215.1031	3	
215.1163	1	
216.0894	19	C12H12N2O2+
216.1014	1	C13H14NO2+
217.097	4	C12H13N2O2+
227.081	1	C13H11N2O2+
239.0942	1	C15H13NO2+
240.1013	1	C15H14NO2+
241.097	117	C14H13N2O2+
242.1049	5	C14H14N2O2+
242.1175	1	C15H16NO2+
243.1127	79	C14H15N2O2+
256.0928	1	
256.0982	1	
256.1205	213	C15H16N2O2+
256.1485	1	
257.1283	34	C15H17N2O2+
271.1808	2	C17H23N2O+
299.1197	1	
299.1395	6	
299.1478	4	
299.1752	999	C18H23N2O2+
299.2033	5	
299.2106	6	
299.2211	2	
