Mass spectrum: N-Methylbenzenesulfonamide; LC-ESI-QFT; MS2; CE: 30%; R=35000; [M+H]+
Name: N-Methylbenzenesulfonamide
Formula: C7H9NO2S
Exact mass: 171.035399528
SMILES: CNS(=O)(=O)C1=CC=CC=C1
InChI: InChI=1S/C7H9NO2S/c1-8-11(9,10)7-5-3-2-4-6-7/h2-6,8H,1H3
Instrument: QExactive Plus Thermo Scientific
Instrument type: LC-ESI-QFT
Ms type: MS2
Ion mode: POSITIVE
Ionization: ESI
Fragmentation mode: CID
Collision energy: 30 % (nominal)
Resolution: 35000
Column name: Kinetex EVO 2.6 um, 50 x 2.1 mm (Phenomenex)
Retention time: 5.089 min
Base peak: 196.2057
Precursor m/z: 172.0427
Precursor type: [M+H]+
Precursor intensity: 10039569.33
m/z	relative intensity	assigned
50.015	3	C4H2+
51.0229	6	C4H3+
53.0386	59	C4H5+
55.0179	2	C3H3O+
77.0366	1	
77.0385	122	C6H5+
81.0335	12	C5H5O+
90.9476	2	
94.0413	1	C6H6O+
95.0428	1	
95.0491	309	C6H7O+
95.0515	5	
95.054	1	
95.0555	2	
105.0447	121	
111.9682	1	
113.9636	1	
116.1068	2	
130.159	1	
140.9826	1	
140.9855	2	
140.9889	6	
140.9912	3	
141.0004	999	C6H5O2S+
141.0094	7	
141.0118	7	
141.015	2	
141.0186	1	
141.0214	1	
144.0014	1	
156.001	1	
158.0168	13	
159.0111	4	
172.0426	118	C7H10NO2S+
172.0966	1	
172.1331	2	
172.1696	31	
173.0267	1	
