Mass spectrum: Tris(2,4-di-tert-butylphenyl)phosphate; LC-ESI-QFT; MS2; CE: 30%; R=35000; [M+H]+
Name: Tris(2,4-di-tert-butylphenyl)phosphate
Formula: C42H63O4P
Exact mass: 662.446397126
SMILES: CC(C)(C)C1=CC(=C(OP(=O)(OC2=C(C=C(C=C2)C(C)(C)C)C(C)(C)C)OC2=C(C=C(C=C2)C(C)(C)C)C(C)(C)C)C=C1)C(C)(C)C
InChI: InChI=1S/C42H63O4P/c1-37(2,3)28-19-22-34(31(25-28)40(10,11)12)44-47(43,45-35-23-20-29(38(4,5)6)26-32(35)41(13,14)15)46-36-24-21-30(39(7,8)9)27-33(36)42(16,17)18/h19-27H,1-18H3
Instrument: QExactive Plus Thermo Scientific
Instrument type: LC-ESI-QFT
Ms type: MS2
Ion mode: POSITIVE
Ionization: ESI
Fragmentation mode: CID
Collision energy: 30 % (nominal)
Resolution: 35000
Column name: Kinetex EVO 2.6 um, 50 x 2.1 mm (Phenomenex)
Retention time: 17.373 min
Base peak: 722.527
Precursor m/z: 663.4537
Precursor type: [M+H]+
Precursor intensity: 39129189.54
m/z	relative intensity	assigned
55.026	2	
55.0269	21	
55.0284	43	
55.0297	1	
57.0699	85	C4H9+
61.2576	1	
95.7834	1	
109.7989	2	
123.8144	2	
136.0618	2	
147.1167	8	C11H15+
251.0465	9	C12H12O4P+
307.1091	14	C16H20O4P+
327.0621	1	
327.0779	93	C18H16O4P+
363.1723	8	C20H28O4P+
383.0896	3	
383.0999	2	
383.1407	417	C22H24O4P+
383.1816	2	
383.1916	2	
439.1227	2	
439.1401	6	
439.153	3	
439.2035	999	C26H32O4P+
439.2533	7	
439.2659	7	
439.2848	2	
439.3013	1	
471.2299	1	C34H31O2+
495.19	6	
495.2661	997	C30H40O4P+
495.325	7	
495.3405	7	
495.3634	2	
527.2899	1	
551.3289	37	C41H43O+
