Mass spectrum: 2-Chlorobenzothiazole; LC-ESI-QFT; MS2; CE: 30%; R=35000; [M+H]+
Name: 2-Chlorobenzothiazole
Formula: C7H4ClNS
Exact mass: 168.975297808
SMILES: ClC1=NC2=CC=CC=C2S1
InChI: InChI=1S/C7H4ClNS/c8-7-9-5-3-1-2-4-6(5)10-7/h1-4H
Instrument: QExactive Plus Thermo Scientific
Instrument type: LC-ESI-QFT
Ms type: MS2
Ion mode: POSITIVE
Ionization: ESI
Fragmentation mode: CID
Collision energy: 30 % (nominal)
Resolution: 35000
Column name: Kinetex EVO 2.6 um, 50 x 2.1 mm (Phenomenex)
Retention time: 10.607 min
Base peak: 274.2736
Precursor m/z: 169.9826
Precursor type: [M+H]+
Precursor intensity: 5196540.2
m/z	relative intensity	assigned
84.0813	2	
112.0757	3	
134.0066	1	C7H4NS+
135.0146	5	C7H5NS+
152.107	2	
169.955	1	
169.9595	2	
169.9639	4	
169.9682	10	
169.9724	30	
169.9757	53	
169.9826	999	C7H5ClNS+
169.9919	13	
170.0965	1	
170.1174	4	
170.1553	1	
