Mass spectrum: Tetraethyleneglycol monobutyl ether; LC-ESI-QFT; MS2; CE: 30%; R=35000; [M+H]+
Name: Tetraethyleneglycol monobutyl ether
Formula: C12H26O5
Exact mass: 250.178023932
SMILES: CCCCOCCOCCOCCOCCO
InChI: InChI=1S/C12H26O5/c1-2-3-5-14-7-9-16-11-12-17-10-8-15-6-4-13/h13H,2-12H2,1H3
Instrument: QExactive Plus Thermo Scientific
Instrument type: LC-ESI-QFT
Ms type: MS2
Ion mode: POSITIVE
Ionization: ESI
Fragmentation mode: CID
Collision energy: 30 % (nominal)
Resolution: 35000
Column name: Kinetex EVO 2.6 um, 50 x 2.1 mm (Phenomenex)
Retention time: 8.979 min
Base peak: 251.1849
Precursor m/z: 251.1853
Precursor type: [M+H]+
Precursor intensity: 41409781.86
m/z	relative intensity	assigned
55.0542	14	C4H7+
57.0698	64	C4H9+
59.0491	9	C3H7O+
73.0647	29	C4H9O+
83.0855	46	C6H11+
87.0441	9	C4H7O2+
89.0523	2	
89.0539	7	
89.0551	5	
89.0597	999	C4H9O2+
89.0642	5	
89.0654	7	
89.067	1	
89.0688	1	
91.0753	1	C4H11O2+
101.0961	122	C6H13O+
103.0753	5	C5H11O2+
107.0702	27	C4H11O3+
117.0909	7	C6H13O2+
121.086	1	C5H13O3+
133.0753	1	
133.0859	212	C6H13O3+
133.0964	1	
135.1015	1	C6H15O3+
145.1223	59	C8H17O2+
151.0965	20	C6H15O4+
163.1329	2	C8H19O3+
177.1121	23	C8H17O4+
189.1483	3	C10H21O3+
195.1227	33	C8H19O5+
207.1591	5	C10H23O4+
251.1852	13	C12H27O5+
