Mass spectrum: Phthalonitrile; LC-ESI-QFT; MS2; CE: 30%; R=35000; [M+H]+
Name: Phthalonitrile
Formula: C8H4N2
Exact mass: 128.037448128
SMILES: N#CC1=CC=CC=C1C#N
InChI: InChI=1S/C8H4N2/c9-5-7-3-1-2-4-8(7)6-10/h1-4H
Instrument: QExactive Plus Thermo Scientific
Instrument type: LC-ESI-QFT
Ms type: MS2
Ion mode: POSITIVE
Ionization: ESI
Fragmentation mode: CID
Collision energy: 30 % (nominal)
Resolution: 35000
Column name: Kinetex EVO 2.6 um, 50 x 2.1 mm (Phenomenex)
Retention time: 5.113 min
Base peak: 196.2058
Precursor m/z: 129.0447
Precursor type: [M+H]+
Precursor intensity: 1361253.78
m/z	relative intensity	assigned
50.8708	1	
51.0232	3	C4H3+
53.0388	1	C4H5+
55.0181	3	
55.0545	12	
55.9346	3	
56.3054	1	
56.8745	1	
57.0338	5	
58.0653	2	
58.4544	2	
59.0243	1	
59.0494	8	
62.9243	1	
68.9629	3	
68.9973	3	
69.0339	8	
69.0702	14	
69.2667	3	
70.9418	10	
70.9582	4	
71.0494	3	
73.0652	2	
78.0343	9	C5H4N+
83.0496	13	
83.086	20	
85.0262	2	
85.0289	33	
86.0604	2	
86.9734	1	
87.0444	2	
87.0809	2	
88.9529	7	
92.05	5	
96.9381	3	
97.0291	5	
97.0652	2	
101.0604	11	
102.0345	12	
107.0013	1	
111.0441	9	
111.0805	13	
112.85	1	
119.0309	4	
119.0381	5	
120.0452	18	
121.2729	1	
128.9512	3	
128.9847	6	
129.0351	10	
129.0381	33	
129.0404	64	
129.0447	999	C8H5N2+
129.0554	35	
129.0663	3	
129.0706	5	
129.0919	9	
129.1029	1	
129.1111	2	
130.0356	4	
130.0409	91	
132.2124	1	
132.9597	5	
137.0414	2	
147.0499	3	
147.0563	73	
