Mass spectrum: 2,2`-Dithiobisbenzanilide; LC-ESI-QFT; MS2; CE: 30%; R=35000; [M+H]+
Name: 2,2`-Dithiobisbenzanilide
Formula: C26H20N2O2S2
Exact mass: 456.09661988
SMILES: O=C(NC1=CC=CC=C1)C1=CC=CC=C1SSC1=CC=CC=C1C(=O)NC1=CC=CC=C1
InChI: InChI=1S/C26H20N2O2S2/c29-25(27-19-11-3-1-4-12-19)21-15-7-9-17-23(21)31-32-24-18-10-8-16-22(24)26(30)28-20-13-5-2-6-14-20/h1-18H,(H,27,29)(H,28,30)
Instrument: QExactive Plus Thermo Scientific
Instrument type: LC-ESI-QFT
Ms type: MS2
Ion mode: POSITIVE
Ionization: ESI
Fragmentation mode: CID
Collision energy: 30 % (nominal)
Resolution: 35000
Column name: Kinetex EVO 2.6 um, 50 x 2.1 mm (Phenomenex)
Retention time: 13.412 min
Base peak: 457.1039
Precursor m/z: 457.1039
Precursor type: [M+H]+
Precursor intensity: 85597511.39
m/z	relative intensity	assigned
50.0152	1	C4H2+
51.0228	2	C4H3+
53.0386	3	C4H5+
57.0105	1	
77.0385	13	C6H5+
94.0413	1	C6H6O+
95.0491	24	C6H7O+
105.0239	3	
105.0262	6	
105.0335	999	C7H5O+
105.041	6	
105.0448	10	
106.0288	1	C6H4NO+
109.0106	17	C6H5S+
124.0215	32	C6H6NS+
149.9846	1	
149.9883	2	
149.991	2	
150.0008	480	C7H4NOS+
150.0136	3	
182.027	9	C8H8NO2S+
195.0678	11	C13H9NO+
196.0758	6	C13H10NO+
198.0911	2	C13H12NO+
200.053	1	C12H10NS+
210.0375	2	C13H8NS+
212.0528	113	C13H10NS+
228.0171	2	
228.0243	3	
228.0477	645	C13H10NOS+
228.0715	4	
254.0274	1	C14H8NO2S+
260.0195	1	C13H10NOS2+
332.0744	4	C20H14NO2S+
