Mass spectrum: N-Methyl-dicyclohexylamine; LC-ESI-QFT; MS2; CE: 30%; R=35000; [M+H]+
Name: N-Methyl-dicyclohexylamine
Formula: C13H25N
Exact mass: 195.1986998
SMILES: CN(C1CCCCC1)C1CCCCC1
InChI: InChI=1S/C13H25N/c1-14(12-8-4-2-5-9-12)13-10-6-3-7-11-13/h12-13H,2-11H2,1H3
Instrument: QExactive Plus Thermo Scientific
Instrument type: LC-ESI-QFT
Ms type: MS2
Ion mode: POSITIVE
Ionization: ESI
Fragmentation mode: CID
Collision energy: 30 % (nominal)
Resolution: 35000
Column name: Kinetex EVO 2.6 um, 50 x 2.1 mm (Phenomenex)
Retention time: 5.165 min
Base peak: 196.2057
Precursor m/z: 196.206
Precursor type: [M+H]+
Precursor intensity: 58602717.17
m/z	relative intensity	assigned
55.0543	5	C4H7+
83.0855	61	C6H11+
112.112	3	C7H14N+
114.1194	1	
114.121	1	
114.1277	215	C7H16N+
114.1344	1	
114.136	1	
196.1817	3	
196.187	6	
196.1913	5	
196.2059	999	C13H26N+
196.2207	3	
196.225	5	
196.2356	1	
