Mass spectrum: Erucamide; LC-ESI-QFT; MS2; CE: 30%; R=35000; [M+H]+
Name: Erucamide
Formula: C22H43NO
Exact mass: 337.334464996
SMILES: CCCCCCCC\C=C/CCCCCCCCCCCC(N)=O
InChI: InChI=1S/C22H43NO/c1-2-3-4-5-6-7-8-9-10-11-12-13-14-15-16-17-18-19-20-21-22(23)24/h9-10H,2-8,11-21H2,1H3,(H2,23,24)/b10-9-
Instrument: QExactive Plus Thermo Scientific
Instrument type: LC-ESI-QFT
Ms type: MS2
Ion mode: POSITIVE
Ionization: ESI
Fragmentation mode: CID
Collision energy: 30 % (nominal)
Resolution: 35000
Column name: Kinetex EVO 2.6 um, 50 x 2.1 mm (Phenomenex)
Retention time: 16.085 min
Base peak: 338.3414
Precursor m/z: 338.3417
Precursor type: [M+H]+
Precursor intensity: 105062824.91
m/z	relative intensity	assigned
53.0386	4	C4H5+
55.0542	50	C4H7+
55.0555	4	
57.0335	13	
57.0699	351	C4H9+
57.071	4	
57.0714	4	
58.0651	13	C3H8N+
59.0491	7	C3H7O+
64.8474	2	
67.0542	177	C5H7+
67.9575	2	
69.0334	12	
69.0699	718	C5H9+
69.2086	3	
69.2101	3	
70.065	13	C4H8N+
71.0491	47	C4H7O+
71.0855	459	C5H11+
72.0443	26	C3H6NO+
72.0807	51	C4H10N+
73.0648	5	C4H9O+
77.0388	3	C6H5+
79.0542	52	C6H7+
81.0699	542	C6H9+
83.0492	36	
83.0804	5	
83.0855	988	C6H11+
84.0808	17	C5H10N+
84.584	3	
85.0648	44	C5H9O+
85.1012	319	C6H13+
86.0573	4	
86.0601	151	C4H8NO+
86.062	2	
86.0964	22	C5H12N+
87.0804	2	C5H11O+
92.5233	2	
93.0699	137	C7H9+
95.0793	3	
95.0855	638	C7H11+
97.0648	219	C6H9O+
97.0695	3	
97.1012	999	C7H13+
97.3608	3	
98.0964	11	C6H12N+
99.0804	41	C6H11O+
99.1168	18	C7H15+
100.0757	348	C5H10NO+
100.112	6	
101.0961	4	C6H13O+
105.07	2	C8H9+
107.0818	4	
107.0855	201	C8H11+
107.0894	3	
109.1012	477	C8H13+
110.0962	6	C7H12N+
111.0805	279	C7H11O+
111.0861	3	
111.1168	563	C8H15+
112.1122	4	C7H14N+
113.0961	25	C7H13O+
113.1324	6	C8H17+
113.8895	2	
114.0914	414	C6H12NO+
114.1279	6	
115.1117	7	C7H15O+
119.5928	2	
121.1012	392	C9H13+
123.1168	263	C9H15+
123.1264	3	
124.1123	4	C8H14N+
125.0961	232	C8H13O+
125.1325	181	C9H17+
127.1118	15	C8H15O+
127.148	3	C9H19+
128.107	313	C7H14NO+
128.1435	4	
129.0911	3	
129.1274	4	C8H17O+
133.3149	2	
135.1168	541	C10H15+
137.1325	119	C10H17+
137.517	2	
138.128	3	C9H16N+
139.1062	4	
139.1118	186	C9H15O+
139.1173	4	
139.1481	34	C10H19+
140.1436	3	C9H18N+
141.0269	2	
141.1274	8	C9H17O+
142.1227	172	C8H16NO+
142.1284	5	
142.131	3	
142.1592	3	
143.1069	3	
147.1169	2	C11H15+
148.4545	2	
149.1325	428	C11H17+
150.5839	2	
151.1419	2	
151.1482	72	C11H19+
152.137	2	
153.1274	132	C10H17O+
153.1639	16	C11H21+
154.8481	2	
155.1429	7	C10H19O+
156.1384	129	C9H18NO+
156.1748	3	
163.141	5	
163.1481	251	C12H19+
163.1553	4	
165.1639	38	C12H21+
166.1595	3	C11H20N+
167.143	91	C11H19O+
167.1796	13	C12H23+
168.8492	2	
169.1589	5	C11H21O+
170.1539	98	C10H20NO+
170.1903	3	
177.1558	4	
177.1638	157	C13H21+
177.1718	3	
179.1796	19	C13H23+
181.1586	69	C12H21O+
181.1666	4	
181.1951	4	C13H25+
183.1744	4	C12H23O+
184.0547	2	
184.1697	85	C11H22NO+
184.1766	2	
184.2061	3	
185.19	6	C12H25O+
191.1795	109	C14H23+
193.1951	20	C14H25+
195.1744	47	C13H23O+
197.1899	9	C13H25O+
198.1854	65	C12H24NO+
199.2058	4	C13H27O+
205.1952	92	C15H25+
207.2108	34	C15H27+
209.19	38	C14H25O+
209.226	3	C15H29+
211.2057	9	C14H27O+
212.2009	57	C13H26NO+
212.238	3	C14H30N+
213.2213	5	C14H29O+
219.2108	79	C16H27+
219.2575	3	
221.2263	30	C16H29+
223.2057	40	C15H27O+
223.242	3	C16H31+
225.2208	5	C15H29O+
226.2166	59	C14H28NO+
233.2265	70	C17H29+
235.2421	6	C17H31+
237.2214	32	C16H29O+
237.2575	2	C17H33+
240.2322	53	C15H30NO+
240.2687	5	C16H34N+
247.242	76	C18H31+
249.2581	3	C18H33+
251.2369	40	C17H31O+
254.2478	43	C16H32NO+
254.2843	17	C17H36N+
261.2579	36	C19H33+
263.2735	3	C19H35+
265.2526	34	C18H33O+
268.2634	49	C17H34NO+
275.2737	5	C20H35+
277.2884	3	C20H37+
279.2685	23	C19H35O+
279.3048	4	C20H39+
280.3001	5	C19H38N+
282.2793	44	C18H36NO+
288.0051	2	
295.2067	2	C21H27O+
296.295	20	C19H38NO+
296.3311	29	C20H42N+
303.3047	498	C22H39+
320.3312	26	C22H42N+
321.3154	412	C22H41O+
338.3418	668	C22H44NO+
362.9669	3	
