Mass spectrum: epsilon-Caprolactam; LC-ESI-QFT; MS2; CE: 30%; R=35000; [M+H]+
Name: epsilon-Caprolactam
Formula: C6H11NO
Exact mass: 113.084063972
SMILES: O=C1CCCCCN1
InChI: InChI=1S/C6H11NO/c8-6-4-2-1-3-5-7-6/h1-5H2,(H,7,8)
Instrument: QExactive Plus Thermo Scientific
Instrument type: LC-ESI-QFT
Ms type: MS2
Ion mode: POSITIVE
Ionization: ESI
Fragmentation mode: CID
Collision energy: 30 % (nominal)
Resolution: 35000
Column name: Kinetex EVO 2.6 um, 50 x 2.1 mm (Phenomenex)
Retention time: 2.064 min
Base peak: 99.0803
Precursor m/z: 114.0913
Precursor type: [M+H]+
Precursor intensity: 8591200.35
m/z	relative intensity	assigned
55.0541	1	C4H7+
67.0542	5	C5H7+
68.0494	7	C4H6N+
69.0698	43	C5H9+
70.065	2	C4H8N+
71.0491	2	C4H7O+
71.0855	5	C5H11+
72.0807	5	C4H10N+
72.937	6	
79.0542	71	C6H7+
84.0808	2	C5H10N+
86.0964	6	C5H12N+
90.9477	3	
96.0808	52	C6H10N+
97.0648	18	C6H9O+
113.964	1	
114.0552	1	
114.0628	1	
114.0757	1	
114.0783	1	
114.0805	1	
114.083	6	
114.0847	4	
114.0913	999	C6H12NO+
114.0979	6	
114.0996	7	
114.102	2	
114.1045	1	
