Mass spectrum: Cyclododecanone; LC-ESI-QFT; MS2; CE: 30%; R=35000; [M+H]+
Name: Cyclododecanone
Formula: C12H22O
Exact mass: 182.167065324
SMILES: O=C1CCCCCCCCCCC1
InChI: InChI=1S/C12H22O/c13-12-10-8-6-4-2-1-3-5-7-9-11-12/h1-11H2
Instrument: QExactive Plus Thermo Scientific
Instrument type: LC-ESI-QFT
Ms type: MS2
Ion mode: POSITIVE
Ionization: ESI
Fragmentation mode: CID
Collision energy: 30 % (nominal)
Resolution: 35000
Column name: Kinetex EVO 2.6 um, 50 x 2.1 mm (Phenomenex)
Retention time: 12.887 min
Base peak: 299.1753
Precursor m/z: 183.1743
Precursor type: [M+H]+
Precursor intensity: 1025988.43
m/z	relative intensity	assigned
52.5511	22	
55.0545	210	C4H7+
56.4072	19	
57.0702	70	C4H9+
57.1693	21	
57.1919	21	
61.4825	20	
64.4581	22	
67.0546	238	C5H7+
69.0703	148	C5H9+
69.2733	42	
71.0495	95	C4H7O+
71.0857	50	C5H11+
76.8641	21	
81.0699	354	C6H9+
83.0834	74	
83.086	999	C6H11+
85.0289	25	
85.0653	71	C5H9O+
85.1017	28	C6H13+
90.9482	42	
93.0705	29	C7H9+
95.0496	42	C6H7O+
95.0829	50	
95.0862	782	C7H11+
97.0287	25	
97.0655	20	
97.1013	245	C7H13+
97.3612	26	
98.9848	69	
99.0445	34	
99.0809	37	C6H11O+
102.9485	29	
104.2215	19	
104.9641	97	
105.0342	211	
107.0861	35	C8H11+
107.9509	22	
109.0654	46	C7H9O+
109.1019	634	
113.0601	30	
113.0966	22	C7H13O+
118.9799	45	
119.0861	23	C9H11+
123.045	50	
123.0805	148	C8H11O+
123.1177	201	
125.0602	40	
127.0163	32	
127.1124	29	C8H15O+
130.3374	21	
132.959	24	
136.9905	26	
136.9971	54	
137.0971	71	
137.1333	50	C10H17+
147.0808	25	C10H11O+
150.9256	27	
150.9357	127	
150.9704	26	
151.0055	29	
151.0128	27	
151.0396	48	
151.0763	42	
155.0077	38	
155.0714	20	
155.1073	27	
165.0923	101	
165.1285	49	
168.9361	39	
168.9464	124	
169.051	28	
171.8698	20	
182.9626	44	
183.0452	30	
183.0656	80	
183.0818	83	
183.0946	46	
183.1018	171	
183.1177	27	
183.1384	139	
183.1745	579	C12H23O+
