Mass spectrum: 1,3-Diphenylurea; LC-ESI-QFT; MS2; CE: 30%; R=35000; [M+H]+
Name: 1,3-Diphenylurea
Formula: C13H12N2O
Exact mass: 212.094963004
SMILES: O=C(NC1=CC=CC=C1)NC1=CC=CC=C1
InChI: InChI=1S/C13H12N2O/c16-13(14-11-7-3-1-4-8-11)15-12-9-5-2-6-10-12/h1-10H,(H2,14,15,16)
Instrument: QExactive Plus Thermo Scientific
Instrument type: LC-ESI-QFT
Ms type: MS2
Ion mode: POSITIVE
Ionization: ESI
Fragmentation mode: CID
Collision energy: 30 % (nominal)
Resolution: 35000
Column name: Kinetex EVO 2.6 um, 50 x 2.1 mm (Phenomenex)
Retention time: 9.993 min
Base peak: 213.102
Precursor m/z: 213.1022
Precursor type: [M+H]+
Precursor intensity: 140834547.02
m/z	relative intensity	assigned
77.0384	5	C6H5+
92.0494	5	C6H6N+
93.0573	1	C6H7N+
94.0553	1	
94.057	1	
94.0589	7	
94.0601	5	
94.0651	999	C6H8N+
94.07	5	
94.0713	7	
94.0731	3	
94.0768	1	
95.0491	4	C6H7O+
105.0446	2	C6H5N2+
120.0444	33	C7H6NO+
213.0808	1	
213.0856	1	
213.1022	240	C13H13N2O+
213.1236	1	
