Mass spectrum: Dibutyl sebacate; LC-ESI-QFT; MS2; CE: 30%; R=35000; [M+H]+
Name: Dibutyl sebacate
Formula: C18H34O4
Exact mass: 314.245709568
SMILES: CCCCOC(=O)CCCCCCCCC(=O)OCCCC
InChI: InChI=1S/C18H34O4/c1-3-5-15-21-17(19)13-11-9-7-8-10-12-14-18(20)22-16-6-4-2/h3-16H2,1-2H3
Instrument: QExactive Plus Thermo Scientific
Instrument type: LC-ESI-QFT
Ms type: MS2
Ion mode: POSITIVE
Ionization: ESI
Fragmentation mode: CID
Collision energy: 30 % (nominal)
Resolution: 35000
Column name: Kinetex EVO 2.6 um, 50 x 2.1 mm (Phenomenex)
Retention time: 14.848 min
Base peak: 337.2346
Precursor m/z: 315.253
Precursor type: [M+H]+
Precursor intensity: 13428960.9
m/z	relative intensity	assigned
50.7806	2	
53.0387	1	C4H5+
55.053	1	
55.0544	8	C4H7+
57.0335	1	C3H5O+
57.0699	16	C4H9+
59.0492	1	C3H7O+
60.0209	1	C2H4O2+
67.0542	30	C5H7+
69.0335	4	C4H5O+
69.0698	48	C5H9+
69.2091	1	
71.049	4	C4H7O+
73.0647	10	C4H9O+
77.0386	1	C6H5+
79.0541	14	C6H7+
81.0699	121	C6H9+
81.0724	1	
83.0491	24	C5H7O+
83.0855	1	C6H11+
85.0285	4	C4H5O2+
85.0648	11	C5H9O+
87.0441	1	C4H7O2+
91.0543	1	C7H7+
93.0699	41	C7H9+
95.0855	43	C7H11+
97.0623	1	
97.0648	46	C6H9O+
97.1012	50	C7H13+
99.0441	2	C5H7O2+
99.0803	6	C6H11O+
101.0597	11	C5H9O2+
105.0699	4	C8H9+
107.0801	1	
107.0855	52	C8H11+
109.1011	1	C8H13+
111.0439	1	
111.1168	65	C8H15+
115.0752	4	C6H11O2+
115.1118	2	C7H15O+
117.0699	2	C9H9+
119.0855	17	C9H11+
121.0921	3	
121.1011	487	C9H13+
123.0803	1	C8H11O+
123.1167	3	C9H15+
125.0961	1	C8H13O+
131.0783	1	
131.0855	54	C10H11+
133.1012	2	C10H13+
139.0944	1	
139.0975	1	
139.1005	7	
139.1028	6	
139.1117	999	C9H15O+
139.1206	4	
139.1229	6	
139.1262	2	
149.0961	141	C10H13O+
151.1117	3	C10H15O+
157.1223	158	C9H17O2+
167.1066	83	C10H15O2+
169.1223	3	C10H17O2+
181.122	2	C11H17O2+
185.1172	307	C10H17O3+
187.1119	1	C13H15O+
187.121	1	
187.133	7	C10H19O3+
199.1329	18	C11H19O3+
203.1078	5	
203.1124	3	
203.1277	881	C10H19O4+
203.1476	5	
203.1529	2	
205.1319	2	
213.1847	7	C13H25O2+
217.1434	52	C11H21O4+
223.1689	1	C14H23O2+
231.0763	1	
241.1792	3	C14H25O3+
259.1903	62	C14H27O4+
259.2046	1	
273.2062	2	C15H29O4+
301.0586	1	
315.177	3	
315.1955	2	
315.2314	6	
