Mass spectrum: Diisopropyl sebacate; LC-ESI-QFT; MS2; CE: 30%; R=35000; [M+H]+
Name: Diisopropyl sebacate
Formula: C16H30O4
Exact mass: 286.21440944
SMILES: CC(C)OC(=O)CCCCCCCCC(=O)OC(C)C
InChI: InChI=1S/C16H30O4/c1-13(2)19-15(17)11-9-7-5-6-8-10-12-16(18)20-14(3)4/h13-14H,5-12H2,1-4H3
Instrument: QExactive Plus Thermo Scientific
Instrument type: LC-ESI-QFT
Ms type: MS2
Ion mode: POSITIVE
Ionization: ESI
Fragmentation mode: CID
Collision energy: 30 % (nominal)
Resolution: 35000
Column name: Kinetex EVO 2.6 um, 50 x 2.1 mm (Phenomenex)
Retention time: 13.949 min
Base peak: 309.2034
Precursor m/z: 287.2217
Precursor type: [M+H]+
Precursor intensity: 45858895.84
m/z	relative intensity	assigned
50.7806	2	
55.018	1	C3H3O+
55.053	1	
55.0545	5	C4H7+
57.07	1	C4H9+
67.0542	7	C5H7+
69.068	1	
69.0698	13	C5H9+
69.2193	1	
73.0647	3	C4H9O+
79.0542	1	C6H7+
81.0675	1	
81.0699	34	C6H9+
83.0491	5	C5H7O+
83.0857	1	C6H11+
85.0648	2	C5H9O+
93.0699	9	C7H9+
95.0855	11	C7H11+
97.0649	13	C6H9O+
97.1012	15	C7H13+
99.0805	1	C6H11O+
101.0597	3	C5H9O2+
105.0698	1	C8H9+
107.0856	8	C8H11+
111.1169	16	C8H15+
115.0754	1	C6H11O2+
119.0855	4	C9H11+
121.1012	125	C9H13+
131.0856	9	C10H11+
139.1007	2	
139.1118	340	C9H15O+
139.1206	1	
139.123	2	
149.0962	35	C10H13O+
149.1024	1	
157.1224	27	C9H17O2+
167.1068	25	C10H15O2+
185.0952	1	
185.1002	3	
185.1036	2	
185.1173	453	C10H17O3+
185.1311	2	
185.1345	3	
187.1219	2	
199.133	23	C11H19O3+
203.1022	2	
203.1279	999	C10H19O4+
203.1478	6	
203.1529	1	
204.1332	1	
205.1321	4	
217.1436	54	C11H21O4+
231.1594	1	C12H23O4+
245.1749	6	C13H25O4+
