Mass spectrum: Cyclohexylphenylketone; LC-ESI-QFT; MS2; CE: 30%; R=35000; [M+H]+
Name: Cyclohexylphenylketone
Formula: C13H16O
Exact mass: 188.120115132
SMILES: O=C(C1CCCCC1)C1=CC=CC=C1
InChI: InChI=1S/C13H16O/c14-13(11-7-3-1-4-8-11)12-9-5-2-6-10-12/h1,3-4,7-8,12H,2,5-6,9-10H2
Instrument: QExactive Plus Thermo Scientific
Instrument type: LC-ESI-QFT
Ms type: MS2
Ion mode: POSITIVE
Ionization: ESI
Fragmentation mode: CID
Collision energy: 30 % (nominal)
Resolution: 35000
Column name: Kinetex EVO 2.6 um, 50 x 2.1 mm (Phenomenex)
Retention time: 12.516 min
Base peak: 281.1647
Precursor m/z: 189.1274
Precursor type: [M+H]+
Precursor intensity: 1123449.23
m/z	relative intensity	assigned
50.3754	2	
55.0543	4	C4H7+
55.3324	2	
58.6921	1	
58.9209	2	
65.6787	2	
67.0542	75	C5H7+
68.736	6	
69.0699	28	C5H9+
71.049	2	C4H7O+
79.0543	111	C6H7+
81.07	2	C6H9+
83.0856	59	C6H11+
84.8635	2	
85.0286	4	
85.0648	5	C5H9O+
91.0543	316	C7H7+
93.0699	16	C7H9+
94.8789	2	
95.0854	2	C7H11+
97.0649	11	C6H9O+
97.3605	3	
99.044	3	
103.0542	4	C8H7+
105.0336	10	C7H5O+
105.0699	15	C8H9+
107.0492	999	C7H7O+
111.0805	5	C7H11O+
112.9886	3	
114.9482	2	
115.0543	3	C9H7+
116.9637	2	
117.0699	20	C9H9+
117.1497	2	
119.0305	2	
119.0857	5	C9H11+
121.0648	20	C8H9O+
124.93	5	
128.0623	2	C10H8+
128.9835	8	
129.0144	4	
129.0699	159	C10H9+
129.0749	4	
132.959	3	
133.1012	4	C10H13+
143.0857	46	C11H11+
145.1011	4	C11H13+
146.06	6	
147.0252	10	
154.7649	2	
157.0434	4	
161.06	2	
171.0807	2	
171.1169	133	C13H15+
174.0914	9	
174.6503	2	
174.9393	2	
174.9698	2	
189.0548	8	
189.0911	17	
189.0991	3	
189.1093	3	
189.1185	2	
189.1275	252	C13H17O+
189.1637	7	
