Mass spectrum: N-Ethyl-3-methylbenzamide; LC-ESI-QFT; MS2; CE: 30%; R=35000; [M+H]+
Name: N-Ethyl-3-methylbenzamide
Formula: C10H13NO
Exact mass: 163.099714036
SMILES: CCNC(=O)C1=CC(C)=CC=C1
InChI: InChI=1S/C10H13NO/c1-3-11-10(12)9-6-4-5-8(2)7-9/h4-7H,3H2,1-2H3,(H,11,12)
Instrument: QExactive Plus Thermo Scientific
Instrument type: LC-ESI-QFT
Ms type: MS2
Ion mode: POSITIVE
Ionization: ESI
Fragmentation mode: CID
Collision energy: 30 % (nominal)
Resolution: 35000
Column name: Kinetex EVO 2.6 um, 50 x 2.1 mm (Phenomenex)
Retention time: 7.992 min
Base peak: 164.1068
Precursor m/z: 164.107
Precursor type: [M+H]+
Precursor intensity: 191233151.84
m/z	relative intensity	assigned
65.0387	1	C5H5+
72.0401	2	
72.041	1	
72.0443	305	C3H6NO+
72.0477	1	
72.0485	2	
91.0541	7	C7H7+
93.0699	80	C7H9+
105.9347	3	
109.0648	3	C7H9O+
118.0651	2	C8H8N+
119.0403	3	
119.0421	3	
119.0491	502	C8H7O+
119.0563	2	
119.058	3	
119.0606	2	
146.0963	1	C10H12N+
164.0846	1	
164.0885	2	
164.0926	7	
164.0957	5	
164.107	999	C10H14NO+
164.1185	4	
164.1213	6	
164.1256	2	
164.1297	1	
