Mass spectrum: Aureusidin; LC-ESI-QFT; MS2; CE: 30%; R=17500; [M+H]+
Name: Aureusidin
Name: 2-[(3,4-Dihydroxyphenyl)methylidene]-4,6-dihydroxy-3-benzofuranone
Name: 2-[(3,4-dihydroxyphenyl)methylidene]-4,6-dihydroxy-1-benzofuran-3-one
Formula: C15H10O6
Exact mass: 286.047738
SMILES: C1=CC(=C(C=C1C=C2C(=O)C3=C(C=C(C=C3O2)O)O)O)O
InChI: InChI=1S/C15H10O6/c16-8-5-11(19)14-12(6-8)21-13(15(14)20)4-7-1-2-9(17)10(18)3-7/h1-6,16-19H
Instrument: Exploris 240 Orbitrap Thermo Scientific
Instrument type: LC-ESI-QFT
Ms type: MS2
Ion mode: POSITIVE
Ionization: ESI
Fragmentation mode: HCD
Collision energy: 30 % (nominal)
Resolution: 17500
Column name: XBridge C18 3.5um, 2.1x50mm, Waters
Retention time: 5.270 min
Base peak: 287.0547
Precursor m/z: 287.055
Precursor type: [M+H]+
m/z	relative intensity	assigned
153.0179	16	C7H5O4+
161.0238	1	C9H5O3+
241.0493	5	C14H9O4+
259.0599	8	C14H11O5+
269.0433	7	C15H9O5+
287.0549	999	C15H11O6+
