Mass spectrum: 2-(3,4-Dihydroxyphenyl)Chroman-3,5,7-Triol; LC-ESI-QFT; MS2; CE: 60%; R=17500; [M+H]+
Name: 2-(3,4-Dihydroxyphenyl)Chroman-3,5,7-Triol
Name: 2-(3,4-dihydroxyphenyl)-3,4-dihydro-2H-1-benzopyran-3,5,7-triol
Name: 2-(3,4-dihydroxyphenyl)-3,4-dihydro-2H-chromene-3,5,7-triol
Formula: C15H14O6
Exact mass: 290.0790382
SMILES: C1C(C(OC2=CC(=CC(=C21)O)O)C3=CC(=C(C=C3)O)O)O
InChI: InChI=1S/C15H14O6/c16-8-4-11(18)9-6-13(20)15(21-14(9)5-8)7-1-2-10(17)12(19)3-7/h1-5,13,15-20H,6H2
Instrument: Exploris 240 Orbitrap Thermo Scientific
Instrument type: LC-ESI-QFT
Ms type: MS2
Ion mode: POSITIVE
Ionization: ESI
Fragmentation mode: HCD
Collision energy: 60 % (nominal)
Resolution: 17500
Column name: XBridge C18 3.5um, 2.1x50mm, Waters
Retention time: 2.894 min
Base peak: 291.0862
Precursor m/z: 291.0863
Precursor type: [M+H]+
m/z	relative intensity	assigned
55.0178	36	C3H3O+
65.0384	7	C5H5+
67.0542	25	C5H7+
68.9971	30	C3HO2+
83.0492	16	C5H7O+
91.0542	15	C7H7+
93.0334	35	C6H5O+
95.0492	42	C6H7O+
97.0283	12	C5H5O2+
107.049	6	C7H7O+
111.0439	37	C6H7O2+
115.0542	14	C9H7+
119.0491	87	C8H7O+
121.0284	4	C7H5O2+
123.044	754	C7H7O2+
127.0393	10	C6H7O3+
133.0651	18	C9H9O+
135.0441	10	C8H7O2+
137.0234	21	C7H5O3+
137.06	17	C8H9O2+
139.039	999	C7H7O3+
143.0491	56	C10H7O+
147.0441	283	C9H7O2+
149.0603	8	C9H9O2+
151.0394	15	C8H7O3+
151.0752	12	C9H11O2+
153.0544	10	C8H9O3+
161.0597	166	C10H9O2+
163.039	16	C9H7O3+
165.0547	44	C9H9O3+
179.0702	37	C10H11O3+
189.0543	33	C11H9O3+
207.0651	27	C11H11O4+
