Mass spectrum: 2,6-Di-Tert-Butyl-4-Nitrophenol; LC-ESI-QFT; MS2; CE: 60%; R=17500; [M+H]+
Name: 2,6-Di-Tert-Butyl-4-Nitrophenol
Name: 2,6-ditert-butyl-4-nitrophenol
Formula: C14H21NO3
Exact mass: 251.1521435
SMILES: CC(C)(C)C1=CC(=CC(=C1O)C(C)(C)C)[N+](=O)[O-]
InChI: InChI=1S/C14H21NO3/c1-13(2,3)10-7-9(15(17)18)8-11(12(10)16)14(4,5)6/h7-8,16H,1-6H3
Instrument: Exploris 240 Orbitrap Thermo Scientific
Instrument type: LC-ESI-QFT
Ms type: MS2
Ion mode: POSITIVE
Ionization: ESI
Fragmentation mode: HCD
Collision energy: 60 % (nominal)
Resolution: 17500
Column name: XBridge C18 3.5um, 2.1x50mm, Waters
Retention time: 13.507 min
Base peak: 252.1592
Precursor m/z: 252.1594
Precursor type: [M+H]+
m/z	relative intensity	assigned
57.0699	465	C4H9+
93.0699	21	C7H9+
105.0697	16	C8H9+
117.0697	6	C9H9+
119.0859	7	C9H11+
121.0648	8	C8H9O+
121.1012	21	C9H13+
123.0802	18	C8H11O+
135.0803	25	C9H11O+
147.0805	70	C10H11O+
149.096	301	C10H13O+
163.1118	190	C11H15O+
177.1276	13	C12H17O+
190.1353	26	C13H18O+
191.1431	81	C13H19O+
192.1014	11	C11H14NO2+
196.0968	77	C10H14NO3+
207.1383	51	C13H19O2+
220.1333	361	C13H18NO2+
235.1567	999	C14H21NO2+
252.1599	85	C14H22NO3+
