Mass spectrum: 2`-deoxy-8-oxoguanosine; LC-ESI-QFT; MS2; CE: 60%; R=17500; [M-H]-
Name: 2`-deoxy-8-oxoguanosine
Name: CID 3964517
Name: 2-amino-9-[4-hydroxy-5-(hydroxymethyl)oxolan-2-yl]-3,7-dihydropurine-6,8-dione
Formula: C10H13N5O5
Exact mass: 283.091668516
SMILES: C1C(C(OC1N2C3=C(C(=O)NC(=N3)N)NC2=O)CO)O
InChI: InChI=1S/C10H13N5O5/c11-9-13-7-6(8(18)14-9)12-10(19)15(7)5-1-3(17)4(2-16)20-5/h3-5,16-17H,1-2H2,(H,12,19)(H3,11,13,14,18)
Instrument: Exploris 240 Orbitrap Thermo Scientific
Instrument type: LC-ESI-QFT
Ms type: MS2
Ion mode: NEGATIVE
Ionization: ESI
Fragmentation mode: HCD
Collision energy: 60 % (nominal)
Resolution: 17500
Column name: XBridge C18 3.5um, 2.1x50mm, Waters
Retention time: 1.964 min
Base peak: 282.0843
Precursor m/z: 282.0844
Precursor type: [M-H]-
m/z	relative intensity	assigned
66.0098	534	C2N3-
67.0302	68	C3H3N2-
79.0304	23	C4H3N2-
80.0256	13	C3H2N3-
81.0095	17	C3HN2O-
94.0296	19	C5H4NO-
94.041	20	C4H4N3-
95.0251	162	C4H3N2O-
96.0202	33	C3H2N3O-
97.0047	23	C3HN2O2-
106.0049	15	C4N3O-
106.0413	35	C5H4N3-
107.0251	35	C5H3N2O-
107.0362	44	C4H3N4-
121.0156	26	C4HN4O-
121.0402	32	C6H5N2O-
121.0521	75	C5H5N4-
122.0238	68	C4H2N4O-
122.0362	330	C5H4N3O-
123.0077	148	C4HN3O2-
123.0198	29	C5H3N2O2-
124.0151	72	C4H2N3O2-
124.052	34	C5H6N3O-
136.0519	18	C6H6N3O-
147.0312	98	C6H3N4O-
148.0028	68	C5N4O2-
149.0105	66	C5HN4O2-
149.047	432	C6H5N4O-
150.0309	876	C6H4N3O2-
151.0265	38	C5H3N4O2-
161.0474	16	C7H5N4O-
164.0461	71	C7H6N3O2-
165.0292	224	C5H3N5O2-
166.0367	73	C5H4N5O2-
175.0261	209	C7H3N4O2-
192.0528	999	C7H6N5O2-
234.0634	93	C9H8N5O3-
