Mass spectrum: Taxifolin; LC-ESI-QFT; MS2; CE: 15%; R=17500; [M+H]+
Name: Taxifolin
Name: 3,5,7,3',4'-Pentahydroxyflavanone
Name: 2-(3,4-dihydroxyphenyl)-3,5,7-trihydroxy-2,3-dihydrochromen-4-one
Formula: C15H12O7
Exact mass: 304.0583027
SMILES: C1=CC(=C(C=C1C2C(C(=O)C3=C(C=C(C=C3O2)O)O)O)O)O
InChI: InChI=1S/C15H12O7/c16-7-4-10(19)12-11(5-7)22-15(14(21)13(12)20)6-1-2-8(17)9(18)3-6/h1-5,14-19,21H
Instrument: Exploris 240 Orbitrap Thermo Scientific
Instrument type: LC-ESI-QFT
Ms type: MS2
Ion mode: POSITIVE
Ionization: ESI
Fragmentation mode: HCD
Collision energy: 15 % (nominal)
Resolution: 17500
Column name: XBridge C18 3.5um, 2.1x50mm, Waters
Retention time: 4.381 min
Base peak: 305.0653
Precursor m/z: 305.0656
Precursor type: [M+H]+
m/z	relative intensity	assigned
123.0445	7	C7H7O2+
149.0237	10	C8H5O3+
153.0182	162	C7H5O4+
179.0337	13	C9H7O4+
195.0288	88	C9H7O5+
231.0659	7	C13H11O4+
259.0601	236	C14H11O5+
287.0551	241	C15H11O6+
305.0656	999	C15H13O7+
