Mass spectrum: Drometrizole; LC-ESI-QFT; MS2; CE: 45%; R=17500; [M+H]+
Name: Drometrizole
Name: 2-(benzotriazol-2-yl)-4-methylphenol
Formula: C13H11N3O
Exact mass: 225.090212
SMILES: CC1=CC(=C(C=C1)O)N2N=C3C=CC=CC3=N2
InChI: InChI=1S/C13H11N3O/c1-9-6-7-13(17)12(8-9)16-14-10-4-2-3-5-11(10)15-16/h2-8,17H,1H3
Instrument: Exploris 240 Orbitrap Thermo Scientific
Instrument type: LC-ESI-QFT
Ms type: MS2
Ion mode: POSITIVE
Ionization: ESI
Fragmentation mode: HCD
Collision energy: 45 % (nominal)
Resolution: 17500
Column name: XBridge C18 3.5um, 2.1x50mm, Waters
Retention time: 13.562 min
Base peak: 226.0974
Precursor m/z: 226.0975
Precursor type: [M+H]+
m/z	relative intensity	assigned
77.0388	8	C6H5+
79.0542	152	C6H7+
107.0491	814	C7H7O+
120.0556	927	C6H6N3+
143.0855	7	C11H11+
155.0733	18	C11H9N+
170.0965	14	C12H12N+
180.0809	25	C13H10N+
183.0678	156	C12H9NO+
197.0837	21	C13H11NO+
226.0975	999	C13H12N3O+
