Mass spectrum: PG; LC-ESI-QFT; MS2; CE: 60%; R=17500; [M-H]-
Name: PG
Name: Propyl gallate
Name: propyl 3,4,5-trihydroxybenzoate
Formula: C10H12O5
Exact mass: 212.0685
SMILES: CCCOC(=O)C1=CC(=C(C(=C1)O)O)O
InChI: InChI=1S/C10H12O5/c1-2-3-15-10(14)6-4-7(11)9(13)8(12)5-6/h4-5,11-13H,2-3H2,1H3
Instrument: Exploris 240 Orbitrap Thermo Scientific
Instrument type: LC-ESI-QFT
Ms type: MS2
Ion mode: NEGATIVE
Ionization: ESI
Fragmentation mode: HCD
Collision energy: 60 % (nominal)
Resolution: 17500
Column name: XBridge C18 3.5um, 2.1x50mm, Waters
Retention time: 4.768 min
Base peak: 211.0611
Precursor m/z: 211.0612
Precursor type: [M-H]-
m/z	relative intensity	assigned
111.0087	69	C5H3O3-
124.0166	999	C6H4O3-
125.0244	447	C6H5O3-
139.0036	78	C6H3O4-
140.0115	112	C6H4O4-
168.0065	75	C7H4O5-
169.0142	190	C7H5O5-
211.0612	160	C10H11O5-
