Mass spectrum: Aureusidin; LC-ESI-QFT; MS2; CE: 75%; R=17500; [M-H]-
Name: Aureusidin
Name: 2-[(3,4-Dihydroxyphenyl)methylidene]-4,6-dihydroxy-3-benzofuranone
Name: 2-[(3,4-dihydroxyphenyl)methylidene]-4,6-dihydroxy-1-benzofuran-3-one
Formula: C15H10O6
Exact mass: 286.04773804
SMILES: C1=CC(=C(C=C1C=C2C(=O)C3=C(C=C(C=C3O2)O)O)O)O
InChI: InChI=1S/C15H10O6/c16-8-5-11(19)14-12(6-8)21-13(15(14)20)4-7-1-2-9(17)10(18)3-7/h1-6,16-19H
Instrument: Exploris 240 Orbitrap Thermo Scientific
Instrument type: LC-ESI-QFT
Ms type: MS2
Ion mode: NEGATIVE
Ionization: ESI
Fragmentation mode: HCD
Collision energy: 75 % (nominal)
Resolution: 17500
Column name: XBridge C18 3.5um, 2.1x50mm, Waters
Retention time: 5.259 min
Base peak: 285.0403
Precursor m/z: 285.0405
Precursor type: [M-H]-
m/z	relative intensity	assigned
63.024	84	C5H3-
65.0033	195	C4HO-
77.0395	16	C6H5-
79.019	14	C5H3O-
83.0137	93	C4H3O2-
89.0394	13	C7H5-
93.0344	10	C6H5O-
95.0138	12	C5H3O2-
105.0345	44	C7H5O-
107.0138	151	C6H3O2-
109.0295	13	C6H5O2-
115.0552	6	C9H7-
119.0502	18	C8H7O-
121.0292	42	C7H5O2-
131.0507	9	C9H7O-
132.0218	41	C8H4O2-
133.0294	999	C8H5O2-
135.045	65	C8H7O2-
143.0503	23	C10H7O-
145.0292	29	C9H5O2-
147.0454	29	C9H7O2-
148.0166	7	C8H4O3-
149.0245	41	C8H5O3-
151.0038	93	C7H3O4-
156.0222	13	C10H4O2-
157.0298	13	C10H5O2-
157.0661	21	C11H9O-
159.0451	23	C10H7O2-
161.0608	15	C10H9O2-
167.0504	19	C12H7O-
170.0368	15	C11H6O2-
171.0444	33	C11H7O2-
173.0244	7	C10H5O3-
174.0322	22	C10H6O3-
175.04	40	C10H7O3-
183.0445	22	C12H7O2-
185.0611	23	C12H9O2-
187.0402	15	C11H7O3-
189.0557	13	C11H9O3-
195.0452	11	C13H7O2-
197.0254	8	C12H5O3-
198.0318	9	C12H6O3-
199.0398	37	C12H7O3-
211.0394	37	C13H7O3-
212.0476	13	C13H8O3-
213.0567	7	C13H9O3-
215.0349	9	C12H7O4-
227.0353	25	C13H7O4-
229.0502	19	C13H9O4-
239.0349	16	C14H7O4-
256.0387	7	C14H8O5-
