Mass spectrum: Naringenin; LC-ESI-QFT; MS2; CE: 150%; R=17500; [M-H]-
Name: Naringenin
Name: (+-)-Naringenin
Name: 5,7-dihydroxy-2-(4-hydroxyphenyl)-2,3-dihydrochromen-4-one
Formula: C15H12O5
Exact mass: 272.068473484
SMILES: C1C(OC2=CC(=CC(=C2C1=O)O)O)C3=CC=C(C=C3)O
InChI: InChI=1S/C15H12O5/c16-9-3-1-8(2-4-9)13-7-12(19)15-11(18)5-10(17)6-14(15)20-13/h1-6,13,16-18H,7H2
Instrument: Exploris 240 Orbitrap Thermo Scientific
Instrument type: LC-ESI-QFT
Ms type: MS2
Ion mode: NEGATIVE
Ionization: ESI
Fragmentation mode: HCD
Collision energy: 150 % (nominal)
Resolution: 17500
Column name: XBridge C18 3.5um, 2.1x50mm, Waters
Retention time: 6.319 min
Base peak: 271.0611
Precursor m/z: 271.0612
Precursor type: [M-H]-
m/z	relative intensity	assigned
63.024	277	C5H3-
65.0033	999	C4HO-
65.0397	51	C5H5-
83.0138	25	C4H3O2-
91.0553	35	C7H7-
93.0345	239	C6H5O-
117.0345	113	C8H5O-
119.0502	263	C8H7O-
