Mass spectrum: 2-[3-(benzotriazol-2-yl)-4-hydroxyphenyl]ethyl 2-methylprop-2-enoate; LC-ESI-QFT; MS2; CE: 75%; R=17500; [M+H]+
Name: 2-[3-(benzotriazol-2-yl)-4-hydroxyphenyl]ethyl 2-methylprop-2-enoate
Formula: C18H17N3O3
Exact mass: 323.1269914
SMILES: CC(=C)C(=O)OCCC1=CC(=C(C=C1)O)N2N=C3C=CC=CC3=N2
InChI: InChI=1S/C18H17N3O3/c1-12(2)18(23)24-10-9-13-7-8-17(22)16(11-13)21-19-14-5-3-4-6-15(14)20-21/h3-8,11,22H,1,9-10H2,2H3
Instrument: Exploris 240 Orbitrap Thermo Scientific
Instrument type: LC-ESI-QFT
Ms type: MS2
Ion mode: POSITIVE
Ionization: ESI
Fragmentation mode: HCD
Collision energy: 75 % (nominal)
Resolution: 17500
Column name: XBridge C18 3.5um, 2.1x50mm, Waters
Retention time: 14.027 min
Base peak: 324.1341
Precursor m/z: 324.1343
Precursor type: [M+H]+
m/z	relative intensity	assigned
65.0386	86	C5H5+
77.0385	5	C6H5+
79.0542	11	C6H7+
80.0492	5	C5H6N+
91.0542	999	C7H7+
92.0494	29	C6H6N+
104.0495	6	C7H6N+
105.045	8	C6H5N2+
106.0529	10	C6H6N2+
106.0652	4	C7H8N+
107.0599	5	C6H7N2+
115.054	4	C9H7+
117.0571	10	C8H7N+
119.0492	228	C8H7O+
119.0599	14	C7H7N2+
120.0556	35	C6H6N3+
134.0599	5	C8H8NO+
154.0648	8	C11H8N+
165.0703	14	C13H9+
166.0651	9	C12H8N+
167.0729	62	C12H9N+
169.0759	17	C11H9N2+
180.0807	22	C13H10N+
181.0893	9	C13H11N+
183.0682	12	C12H9NO+
183.092	9	C12H11N2+
191.0729	20	C14H9N+
193.0764	10	C13H9N2+
195.0799	10	C12H9N3+
208.0755	5	C14H10NO+
209.0841	10	C14H11NO+
223.0744	19	C13H9N3O+
238.0973	42	C14H12N3O+
