Mass spectrum: Bis(4-Octylphenyl)Amine; LC-ESI-QFT; MS2; CE: 120%; R=17500; [M+H]+
Name: Bis(4-Octylphenyl)Amine
Name: 4-octyl-N-(4-octylphenyl)aniline
Formula: C28H43N
Exact mass: 393.3395504
SMILES: CCCCCCCCC1=CC=C(C=C1)NC2=CC=C(C=C2)CCCCCCCC
InChI: InChI=1S/C28H43N/c1-3-5-7-9-11-13-15-25-17-21-27(22-18-25)29-28-23-19-26(20-24-28)16-14-12-10-8-6-4-2/h17-24,29H,3-16H2,1-2H3
Instrument: Exploris 240 Orbitrap Thermo Scientific
Instrument type: LC-ESI-QFT
Ms type: MS2
Ion mode: POSITIVE
Ionization: ESI
Fragmentation mode: HCD
Collision energy: 120 % (nominal)
Resolution: 17500
Column name: XBridge C18 3.5um, 2.1x50mm, Waters
Retention time: 22.369 min
Base peak: 394.3466
Precursor m/z: 394.3468
Precursor type: [M+H]+
m/z	relative intensity	assigned
53.0386	6	C4H5+
65.0386	59	C5H5+
77.0387	47	C6H5+
78.0341	4	C5H4N+
79.0543	104	C6H7+
80.0496	11	C5H6N+
89.0385	7	C7H5+
91.0542	22	C7H7+
92.0495	20	C6H6N+
93.0573	6	C6H7N+
103.0541	6	C8H7+
106.0652	999	C7H8N+
119.073	6	C8H9N+
120.0807	6	C8H10N+
165.0703	5	C13H9+
167.0728	35	C12H9N+
180.0801	15	C13H10N+
182.0963	50	C13H12N+
194.0964	7	C14H12N+
