Mass spectrum: AO1024; LC-ESI-QFT; MS2; CE: 30%; R=17500; [M-H]-
Name: AO1024
Name: 1,2-Bis(3,5-di-tert-butyl-4-hydroxyhydrocinnamoyl)hydrazine
Name: 3-(3,5-ditert-butyl-4-hydroxyphenyl)-N`-[3-(3,5-ditert-butyl-4-hydroxyphenyl)propanoyl]propanehydrazide
Formula: C34H52N2O4
Exact mass: 552.392708144
SMILES: CC(C)(C)C1=CC(=CC(=C1O)C(C)(C)C)CCC(=O)NNC(=O)CCC2=CC(=C(C(=C2)C(C)(C)C)O)C(C)(C)C
InChI: InChI=1S/C34H52N2O4/c1-31(2,3)23-17-21(18-24(29(23)39)32(4,5)6)13-15-27(37)35-36-28(38)16-14-22-19-25(33(7,8)9)30(40)26(20-22)34(10,11)12/h17-20,39-40H,13-16H2,1-12H3,(H,35,37)(H,36,38)
Instrument: Exploris 240 Orbitrap Thermo Scientific
Instrument type: LC-ESI-QFT
Ms type: MS2
Ion mode: NEGATIVE
Ionization: ESI
Fragmentation mode: HCD
Collision energy: 30 % (nominal)
Resolution: 17500
Column name: XBridge C18 3.5um, 2.1x50mm, Waters
Retention time: 15.102 min
Base peak: 551.3858
Precursor m/z: 551.3854
Precursor type: [M-H]-
m/z	relative intensity	assigned
73.0407	31	C2H5N2O-
115.0513	117	C4H7N2O2-
205.1602	3	C14H21O-
259.1698	17	C17H23O2-
277.1561	4	C15H21N2O3-
291.2079	21	C17H27N2O2-
333.2184	460	C19H29N2O3-
551.3855	999	C34H51N2O4-
