Mass spectrum: 6PPD-Quinone; LC-ESI-QFT; MS2; CE: 120%; R=17500; [M+H]+
Name: 6PPD-Quinone
Name: 2-anilino-5-(4-methylpentan-2-ylamino)cyclohexa-2,5-diene-1,4-dione
Formula: C18H22N2O2
Exact mass: 298.1681279
SMILES: CC(C)CC(C)NC1=CC(=O)C(=CC1=O)NC2=CC=CC=C2
InChI: InChI=1S/C18H22N2O2/c1-12(2)9-13(3)19-15-10-18(22)16(11-17(15)21)20-14-7-5-4-6-8-14/h4-8,10-13,19-20H,9H2,1-3H3
Instrument: Exploris 240 Orbitrap Thermo Scientific
Instrument type: LC-ESI-QFT
Ms type: MS2
Ion mode: POSITIVE
Ionization: ESI
Fragmentation mode: HCD
Collision energy: 120 % (nominal)
Resolution: 17500
Column name: XBridge C18 3.5um, 2.1x50mm, Waters
Retention time: 11.329 min
Base peak: 299.175
Precursor m/z: 299.1754
Precursor type: [M+H]+
m/z	relative intensity	assigned
51.0231	117	C4H3+
53.0386	323	C4H5+
54.0339	76	C3H4N+
55.0179	253	C3H3O+
57.0698	52	C4H9+
65.0386	135	C5H5+
66.0338	147	C4H4N+
66.0464	87	C5H6+
67.0178	167	C4H3O+
68.0131	455	C3H2NO+
69.0334	62	C4H5O+
70.0288	94	C3H4NO+
77.0385	999	C6H5+
78.0463	72	C6H6+
79.0181	65	C5H3O+
82.0525	405	C4H6N2+
84.0443	232	C4H6NO+
91.0541	417	C7H7+
92.0494	88	C6H6N+
93.0572	516	C6H7N+
94.0653	177	C6H8N+
95.0489	298	C6H7O+
96.0444	107	C5H6NO+
103.0542	103	C8H7+
104.0493	445	C7H6N+
105.0446	278	C6H5N2+
110.0476	114	C5H6N2O+
111.0553	139	C5H7N2O+
115.0542	879	C9H7+
116.0495	175	C8H6N+
117.0574	311	C8H7N+
117.0698	206	C9H9+
118.065	413	C8H8N+
120.0445	52	C7H6NO+
127.0547	94	C10H7+
128.0495	342	C9H6N+
130.065	244	C9H8N+
140.0494	98	C10H6N+
142.0647	211	C10H8N+
143.0728	304	C10H9N+
144.0805	342	C10H10N+
146.0601	335	C9H8NO+
154.0653	244	C11H8N+
155.0608	137	C10H7N2+
158.0837	113	C10H10N2+
170.0599	111	C11H8NO+
172.0763	65	C11H10NO+
187.087	66	C11H11N2O+
200.071	69	C12H10NO2+
226.0742	66	C13H10N2O2+
