Mass spectrum: Dioxybenzone; LC-ESI-QFT; MS2; CE: 45%; R=17500; [M-H]-
Name: Dioxybenzone
Name: 2,2`-Dihydroxy-4-methoxybenzophenone
Name: (2-hydroxy-4-methoxyphenyl)-(2-hydroxyphenyl)methanone
Formula: C14H12O4
Exact mass: 244.073558864
SMILES: COC1=CC(=C(C=C1)C(=O)C2=CC=CC=C2O)O
InChI: InChI=1S/C14H12O4/c1-18-9-6-7-11(13(16)8-9)14(17)10-4-2-3-5-12(10)15/h2-8,15-16H,1H3
Instrument: Exploris 240 Orbitrap Thermo Scientific
Instrument type: LC-ESI-QFT
Ms type: MS2
Ion mode: NEGATIVE
Ionization: ESI
Fragmentation mode: HCD
Collision energy: 45 % (nominal)
Resolution: 17500
Column name: XBridge C18 3.5um, 2.1x50mm, Waters
Retention time: 8.780 min
Base peak: 243.0664
Precursor m/z: 243.0663
Precursor type: [M-H]-
m/z	relative intensity	assigned
93.0346	999	C6H5O-
108.0217	111	C6H4O2-
123.0452	989	C7H7O2-
183.0458	7	C12H7O2-
184.0527	29	C12H8O2-
195.0454	43	C13H7O2-
197.0612	8	C13H9O2-
199.0763	10	C13H11O2-
210.0326	7	C13H6O3-
211.0403	17	C13H7O3-
225.0558	32	C14H9O3-
243.0669	13	C14H11O4-
