Mass spectrum: Kaempferol; LC-ESI-QFT; MS2; CE: 120%; R=17500; [M+H]+
Name: Kaempferol
Name: 3,5,7-trihydroxy-2-(4-hydroxyphenyl)chromen-4-one
Formula: C15H10O6
Exact mass: 286.047738
SMILES: C1=CC(=CC=C1C2=C(C(=O)C3=C(C=C(C=C3O2)O)O)O)O
InChI: InChI=1S/C15H10O6/c16-8-3-1-7(2-4-8)15-14(20)13(19)12-10(18)5-9(17)6-11(12)21-15/h1-6,16-18,20H
Instrument: Exploris 240 Orbitrap Thermo Scientific
Instrument type: LC-ESI-QFT
Ms type: MS2
Ion mode: POSITIVE
Ionization: ESI
Fragmentation mode: HCD
Collision energy: 120 % (nominal)
Resolution: 17500
Column name: XBridge C18 3.5um, 2.1x50mm, Waters
Retention time: 6.956 min
Base peak: 287.0548
Precursor m/z: 287.055
Precursor type: [M+H]+
m/z	relative intensity	assigned
51.0228	65	C4H3+
53.0386	126	C4H5+
55.0178	82	C3H3O+
65.0386	519	C5H5+
67.0178	106	C4H3O+
68.9971	999	C3HO2+
69.0335	136	C4H5O+
77.0386	263	C6H5+
78.0464	22	C6H6+
79.018	50	C5H3O+
79.0542	89	C6H7+
81.0334	80	C5H5O+
83.0127	29	C4H3O2+
89.0384	38	C7H5+
91.0542	104	C7H7+
93.0333	63	C6H5O+
95.0491	100	C6H7O+
97.0285	26	C5H5O2+
103.0545	50	C8H7+
107.049	84	C7H7O+
111.0444	42	C6H7O2+
115.054	143	C9H7+
119.0489	22	C8H7O+
121.0284	179	C7H5O2+
127.0543	44	C10H7+
128.0621	233	C10H8+
139.0542	66	C11H7+
153.0182	143	C7H5O4+
157.0649	32	C11H9O+
