Mass spectrum: IPPD-Q; LC-ESI-QFT; MS2; CE: 150%; R=17500; [M+H]+
Name: IPPD-Q
Name: 2-anilino-5-(propan-2-ylamino)cyclohexa-2,5-diene-1,4-dione
Formula: C15H16N2O2
Exact mass: 256.1211778
SMILES: CC(C)NC1=CC(=O)C(=CC1=O)NC2=CC=CC=C2
InChI: InChI=1S/C15H16N2O2/c1-10(2)16-12-8-15(19)13(9-14(12)18)17-11-6-4-3-5-7-11/h3-10,16-17H,1-2H3
Instrument: Exploris 240 Orbitrap Thermo Scientific
Instrument type: LC-ESI-QFT
Ms type: MS2
Ion mode: POSITIVE
Ionization: ESI
Fragmentation mode: HCD
Collision energy: 150 % (nominal)
Resolution: 17500
Column name: XBridge C18 3.5um, 2.1x50mm, Waters
Retention time: 7.927 min
Base peak: 257.1283
Precursor m/z: 257.1285
Precursor type: [M+H]+
m/z	relative intensity	assigned
50.0151	42	C4H2+
51.0229	431	C4H3+
53.0021	61	C3HO+
53.0385	312	C4H5+
54.0338	82	C3H4N+
55.0179	54	C3H3O+
58.0651	49	C3H8N+
65.0386	304	C5H5+
66.0339	99	C4H4N+
66.0466	54	C5H6+
67.0419	58	C4H5N+
68.0131	216	C3H2NO+
70.0288	74	C3H4NO+
77.0385	999	C6H5+
78.0465	76	C6H6+
82.0525	159	C4H6N2+
89.0387	238	C7H5+
90.0465	42	C7H6+
91.0542	513	C7H7+
92.0497	55	C6H6N+
93.0574	186	C6H7N+
95.0492	307	C6H7O+
96.0447	87	C5H6NO+
103.0544	47	C8H7+
104.0497	82	C7H6N+
105.0447	337	C6H5N2+
111.0556	106	C5H7N2O+
115.0542	545	C9H7+
116.0494	191	C8H6N+
117.0572	276	C8H7N+
118.0651	80	C8H8N+
128.0498	64	C9H6N+
130.0654	112	C9H8N+
140.0495	117	C10H6N+
141.0578	59	C10H7N+
142.0655	64	C10H8N+
146.0603	50	C9H8NO+
158.084	56	C10H10N2+
