Mass spectrum: Pinoresinol; LC-ESI-QFT; MS2; CE: 15%; R=17500; [M+H]+
Name: Pinoresinol
Name: (+-)-Pinoresinol
Name: 4-[6-(4-hydroxy-3-methoxyphenyl)-1,3,3a,4,6,6a-hexahydrofuro[3,4-c]furan-3-yl]-2-methoxyphenol
Formula: C20H22O6
Exact mass: 358.1416384
SMILES: COC1=C(C=CC(=C1)C2C3COC(C3CO2)C4=CC(=C(C=C4)O)OC)O
InChI: InChI=1S/C20H22O6/c1-23-17-7-11(3-5-15(17)21)19-13-9-26-20(14(13)10-25-19)12-4-6-16(22)18(8-12)24-2/h3-8,13-14,19-22H,9-10H2,1-2H3
Instrument: Exploris 240 Orbitrap Thermo Scientific
Instrument type: LC-ESI-QFT
Ms type: MS2
Ion mode: POSITIVE
Ionization: ESI
Fragmentation mode: HCD
Collision energy: 15 % (nominal)
Resolution: 17500
Column name: XBridge C18 3.5um, 2.1x50mm, Waters
Retention time: 5.607 min
Base peak: 341.1381
Precursor m/z: 359.1489
Precursor type: [M+H]+
m/z	relative intensity	assigned
137.0596	156	C8H9O2+
151.0388	9	C8H7O3+
153.0549	13	C8H9O3+
165.0545	12	C9H9O3+
175.0754	74	C11H11O2+
177.0543	9	C10H9O3+
177.0907	7	C11H13O2+
179.0706	23	C10H11O3+
187.0753	87	C12H11O2+
189.0909	45	C12H13O2+
217.0859	69	C13H13O3+
269.0809	12	C16H13O4+
270.0886	102	C16H14O4+
271.0964	137	C16H15O4+
279.1016	15	C18H15O3+
283.0967	12	C17H15O4+
291.1013	84	C19H15O3+
297.1121	8	C18H17O4+
311.1276	123	C19H19O4+
323.1278	595	C20H19O4+
329.1387	12	C19H21O5+
341.1383	999	C20H21O5+
