Mass spectrum: NDGA; LC-ESI-QFT; MS2; CE: 15%; R=17500; [M-H]-
Name: NDGA
Name: Nordihydroguaiaretic acid
Name: 4-[4-(3,4-dihydroxyphenyl)-2,3-dimethylbutyl]benzene-1,2-diol
Formula: C18H22O4
Exact mass: 302.1518
SMILES: CC(CC1=CC(=C(C=C1)O)O)C(C)CC2=CC(=C(C=C2)O)O
InChI: InChI=1S/C18H22O4/c1-11(7-13-3-5-15(19)17(21)9-13)12(2)8-14-4-6-16(20)18(22)10-14/h3-6,9-12,19-22H,7-8H2,1-2H3
Instrument: Exploris 240 Orbitrap Thermo Scientific
Instrument type: LC-ESI-QFT
Ms type: MS2
Ion mode: NEGATIVE
Ionization: ESI
Fragmentation mode: HCD
Collision energy: 15 % (nominal)
Resolution: 17500
Column name: XBridge C18 3.5um, 2.1x50mm, Waters
Retention time: 8.522 min
Base peak: 301.1444
Precursor m/z: 301.1445
Precursor type: [M-H]-
m/z	relative intensity	assigned
301.1447	999	C18H21O4-
