Mass spectrum: Isoliquiritigenin; LC-ESI-QFT; MS2; CE: 60%; R=17500; [M+H]+
Name: Isoliquiritigenin
Name: 1-(2,4-dihydroxyphenyl)-3-(4-hydroxyphenyl)prop-2-en-1-one
Formula: C15H12O4
Exact mass: 256.0735589
SMILES: C1=CC(=CC=C1C=CC(=O)C2=C(C=C(C=C2)O)O)O
InChI: InChI=1S/C15H12O4/c16-11-4-1-10(2-5-11)3-8-14(18)13-7-6-12(17)9-15(13)19/h1-9,16-17,19H
Instrument: Exploris 240 Orbitrap Thermo Scientific
Instrument type: LC-ESI-QFT
Ms type: MS2
Ion mode: POSITIVE
Ionization: ESI
Fragmentation mode: HCD
Collision energy: 60 % (nominal)
Resolution: 17500
Column name: XBridge C18 3.5um, 2.1x50mm, Waters
Retention time: 7.266 min
Base peak: 257.0806
Precursor m/z: 257.0808
Precursor type: [M+H]+
m/z	relative intensity	assigned
68.9971	13	C3HO2+
81.0335	36	C5H5O+
91.0541	34	C7H7+
95.0488	15	C6H7O+
107.049	11	C7H7O+
109.0285	14	C6H5O2+
117.0335	38	C8H5O+
119.0491	166	C8H7O+
123.0441	34	C7H7O2+
135.0446	4	C8H7O2+
137.0233	999	C7H5O3+
147.044	286	C9H7O2+
153.0698	4	C12H9+
155.0854	6	C12H11+
163.0388	16	C9H7O3+
183.0806	14	C13H11O+
211.0751	25	C14H11O2+
239.071	11	C15H11O3+
242.0573	8	C14H10O4+
257.0806	13	C15H13O4+
