Mass spectrum: Tinuvin144; LC-ESI-QFT; MS2; CE: 90%; R=17500; [M+H]+
Name: Tinuvin144
Name: bis(1,2,2,6,6-pentamethylpiperidin-4-yl) 2-butyl-2-[(3,5-ditert-butyl-4-hydroxyphenyl)methyl]propanedioate
Formula: C42H72N2O5
Exact mass: 684.5441234
SMILES: CCCCC(CC1=CC(=C(C(=C1)C(C)(C)C)O)C(C)(C)C)(C(=O)OC2CC(N(C(C2)(C)C)C)(C)C)C(=O)OC3CC(N(C(C3)(C)C)C)(C)C
InChI: InChI=1S/C42H72N2O5/c1-18-19-20-42(34(46)48-29-24-38(8,9)43(16)39(10,11)25-29,35(47)49-30-26-40(12,13)44(17)41(14,15)27-30)23-28-21-31(36(2,3)4)33(45)32(22-28)37(5,6)7/h21-22,29-30,45H,18-20,23-27H2,1-17H3
Instrument: Exploris 240 Orbitrap Thermo Scientific
Instrument type: LC-ESI-QFT
Ms type: MS2
Ion mode: POSITIVE
Ionization: ESI
Fragmentation mode: HCD
Collision energy: 90 % (nominal)
Resolution: 17500
Column name: XBridge C18 3.5um, 2.1x50mm, Waters
Retention time: 10.968 min
Base peak: 343.279
Precursor m/z: 685.5514
Precursor type: [M+H]+
m/z	relative intensity	assigned
72.0808	999	C4H10N+
77.0387	1	C6H5+
79.0542	23	C6H7+
81.0699	64	C6H9+
84.0807	7	C5H10N+
85.0887	6	C5H11N+
86.0963	11	C5H12N+
91.0541	4	C7H7+
93.0698	4	C7H9+
95.0856	10	C7H11+
96.0808	3	C6H10N+
98.0964	62	C6H12N+
105.0696	6	C8H9+
107.0856	2	C8H11+
119.0854	11	C9H11+
121.1011	9	C9H13+
123.1169	3	C9H15+
133.101	10	C10H13+
145.1012	2	C11H13+
147.0802	2	C10H11O+
147.117	2	C11H15+
154.1594	3	C10H20N+
161.0967	2	C11H13O+
161.1329	4	C12H17+
173.0963	1	C12H13O+
175.148	3	C13H19+
203.1431	29	C14H19O+
219.1741	11	C15H23O+
