Mass spectrum: 3`,4,4`,5,7-Pentahydroxyflavan; LC-ESI-QFT; MS2; CE: 75%; R=17500; [M-H]-
Name: 3`,4,4`,5,7-Pentahydroxyflavan
Name: 2-(3,4-dihydroxyphenyl)-3,4-dihydro-2H-chromene-4,5,7-triol
Formula: C15H14O6
Exact mass: 290.079038168
SMILES: C1C(C2=C(C=C(C=C2OC1C3=CC(=C(C=C3)O)O)O)O)O
InChI: InChI=1S/C15H14O6/c16-8-4-11(19)15-12(20)6-13(21-14(15)5-8)7-1-2-9(17)10(18)3-7/h1-5,12-13,16-20H,6H2
Instrument: Exploris 240 Orbitrap Thermo Scientific
Instrument type: LC-ESI-QFT
Ms type: MS2
Ion mode: NEGATIVE
Ionization: ESI
Fragmentation mode: HCD
Collision energy: 75 % (nominal)
Resolution: 17500
Column name: XBridge C18 3.5um, 2.1x50mm, Waters
Retention time: 2.902 min
Base peak: 289.0717
Precursor m/z: 289.0718
Precursor type: [M-H]-
m/z	relative intensity	assigned
57.0345	321	C3H5O-
69.0345	110	C4H5O-
80.0269	51	C5H4O-
81.0345	191	C5H5O-
83.0138	204	C4H3O2-
93.0346	161	C6H5O-
95.014	32	C5H3O2-
95.0503	215	C6H7O-
97.0294	345	C5H5O2-
107.0506	19	C7H7O-
108.0216	77	C6H4O2-
109.0295	978	C6H5O2-
117.0347	52	C8H5O-
121.0295	195	C7H5O2-
122.0372	215	C7H6O2-
123.0451	999	C7H7O2-
125.0245	245	C6H5O3-
135.0452	101	C8H7O2-
137.0244	203	C7H5O3-
138.0322	37	C7H6O3-
139.0399	78	C7H7O3-
145.0294	103	C9H5O2-
146.0376	44	C9H6O2-
147.0454	26	C9H7O2-
149.0239	79	C8H5O3-
150.0326	116	C8H6O3-
151.04	125	C8H7O3-
158.0372	23	C10H6O2-
159.045	131	C10H7O2-
160.0533	52	C10H8O2-
161.025	30	C9H5O3-
161.0612	51	C10H9O2-
162.0323	34	C9H6O3-
163.0406	28	C9H7O3-
164.0115	63	C8H4O4-
173.0607	58	C11H9O2-
175.0765	52	C11H11O2-
177.0559	19	C10H9O3-
185.0609	23	C12H9O2-
187.0405	59	C11H7O3-
188.0481	45	C11H8O3-
201.0564	18	C12H9O3-
203.0715	30	C12H11O3-
