Mass spectrum: Ellagic Acid; LC-ESI-QFT; MS2; CE: 75%; R=17500; [M-H]-
Name: Ellagic Acid
Name: 6,7,13,14-tetrahydroxy-2,9-dioxatetracyclo[6.6.2.04,16.011,15]hexadeca-1(15),4,6,8(16),11,13-hexaene-3,10-dione
Formula: C14H6O8
Exact mass: 302.006267152
SMILES: C1=C2C3=C(C(=C1O)O)OC(=O)C4=CC(=C(C(=C43)OC2=O)O)O
InChI: InChI=1S/C14H6O8/c15-5-1-3-7-8-4(14(20)22-11(7)9(5)17)2-6(16)10(18)12(8)21-13(3)19/h1-2,15-18H
Instrument: Exploris 240 Orbitrap Thermo Scientific
Instrument type: LC-ESI-QFT
Ms type: MS2
Ion mode: NEGATIVE
Ionization: ESI
Fragmentation mode: HCD
Collision energy: 75 % (nominal)
Resolution: 17500
Column name: XBridge C18 3.5um, 2.1x50mm, Waters
Retention time: 4.930 min
Base peak: 300.9989
Precursor m/z: 300.999
Precursor type: [M-H]-
m/z	relative intensity	assigned
89.0399	30	C7H5-
101.0398	100	C8H5-
117.0346	381	C8H5O-
127.0187	41	C9H3O-
129.0347	277	C9H5O-
133.0298	160	C8H5O2-
143.0142	58	C9H3O2-
144.022	54	C9H4O2-
145.0295	999	C9H5O2-
155.0142	45	C10H3O2-
156.022	32	C10H4O2-
157.0294	262	C10H5O2-
160.017	76	C9H4O3-
161.0242	221	C9H5O3-
171.0087	111	C10H3O3-
172.0163	157	C10H4O3-
173.0243	631	C10H5O3-
183.0086	43	C11H3O3-
184.0162	99	C11H4O3-
185.0243	402	C11H5O3-
188.0111	47	C10H4O4-
189.0192	275	C10H5O4-
199.0036	216	C11H3O4-
200.0111	388	C11H4O4-
201.0192	482	C11H5O4-
212.0115	59	C12H4O4-
216.0056	239	C11H4O5-
217.0146	204	C11H5O5-
226.9986	242	C12H3O5-
228.0063	268	C12H4O5-
229.0141	364	C12H5O5-
244.0016	146	C12H4O6-
245.0086	319	C12H5O6-
254.9939	63	C13H3O6-
257.0094	62	C13H5O6-
283.9963	718	C14H4O7-
299.9912	731	C14H4O8-
300.9987	308	C14H5O8-
