Mass spectrum: AO1680; LC-ESI-QFT; MS2; CE: 180%; R=17500; [M+H]+
Name: AO1680
Name: Tris(2,4-ditert-butylphenyl)phosphate
Name: tris(2,4-ditert-butylphenyl) phosphate
Formula: C42H63O4P
Exact mass: 662.446397126
SMILES: CC(C)(C)C1=CC(=C(C=C1)OP(=O)(OC2=C(C=C(C=C2)C(C)(C)C)C(C)(C)C)OC3=C(C=C(C=C3)C(C)(C)C)C(C)(C)C)C(C)(C)C
InChI: InChI=1S/C42H63O4P/c1-37(2,3)28-19-22-34(31(25-28)40(10,11)12)44-47(43,45-35-23-20-29(38(4,5)6)26-32(35)41(13,14)15)46-36-24-21-30(39(7,8)9)27-33(36)42(16,17)18/h19-27H,1-18H3
Instrument: Exploris 240 Orbitrap Thermo Scientific
Instrument type: LC-ESI-QFT
Ms type: MS2
Ion mode: POSITIVE
Ionization: ESI
Fragmentation mode: HCD
Collision energy: 180 % (nominal)
Resolution: 17500
Column name: XBridge C18 3.5um, 2.1x50mm, Waters
Retention time: 22.960 min
Base peak: 685.4357
Precursor m/z: 663.4537
Precursor type: [M+H]+
m/z	relative intensity	assigned
77.0386	381	C6H5+
78.0465	175	C6H6+
79.0543	77	C6H7+
89.0387	31	C7H5+
91.0542	999	C7H7+
95.0492	152	C6H7O+
102.0466	12	C8H6+
103.0543	164	C8H7+
104.0623	54	C8H8+
105.07	62	C8H9+
115.0542	518	C9H7+
116.0624	61	C9H8+
117.0698	214	C9H9+
126.0466	12	C10H6+
128.0623	61	C10H8+
129.0698	29	C10H9+
131.086	24	C10H11+
150.0464	17	C12H6+
151.0547	25	C12H7+
152.062	165	C12H8+
168.057	17	C12H8O+
