Mass spectrum: N-(1-Methylheptyl)-N'-phenyl-p-phenylenediamine; LC-ESI-QFT; MS2; CE: 90%; R=17500; [M+H]+
Name: N-(1-Methylheptyl)-N'-phenyl-p-phenylenediamine
Name: 4-N-octan-2-yl-1-N-phenylbenzene-1,4-diamine
Formula: C20H28N2
Exact mass: 296.2252489
SMILES: CCCCCCC(C)NC1=CC=C(C=C1)NC2=CC=CC=C2
InChI: InChI=1S/C20H28N2/c1-3-4-5-7-10-17(2)21-19-13-15-20(16-14-19)22-18-11-8-6-9-12-18/h6,8-9,11-17,21-22H,3-5,7,10H2,1-2H3
Instrument: Exploris 240 Orbitrap Thermo Scientific
Instrument type: LC-ESI-QFT
Ms type: MS2
Ion mode: POSITIVE
Ionization: ESI
Fragmentation mode: HCD
Collision energy: 90 % (nominal)
Resolution: 17500
Column name: XBridge C18 3.5um, 2.1x50mm, Waters
Retention time: 10.936 min
Base peak: 297.2322
Precursor m/z: 297.2325
Precursor type: [M+H]+
m/z	relative intensity	assigned
57.0698	24	C4H9+
65.0383	10	C5H5+
66.0463	14	C5H6+
80.0493	37	C5H6N+
81.0571	45	C5H7N+
92.0494	32	C6H6N+
93.0572	331	C6H7N+
106.0523	18	C6H6N2+
107.0603	369	C6H7N2+
108.068	63	C6H8N2+
118.0527	36	C7H6N2+
130.065	7	C9H8N+
143.0728	9	C10H9N+
144.0803	12	C10H10N+
156.0803	15	C11H10N+
157.0887	16	C11H11N+
166.0647	57	C12H8N+
167.0728	86	C12H9N+
168.0807	44	C12H10N+
169.0759	12	C11H9N2+
182.0833	8	C12H10N2+
183.0914	199	C12H11N2+
184.0993	999	C12H12N2+
