Mass spectrum: IPPD-Q; LC-ESI-QFT; MS2; CE: 180%; R=17500; [M+H]+
Name: IPPD-Q
Name: 2-anilino-5-(propan-2-ylamino)cyclohexa-2,5-diene-1,4-dione
Formula: C15H16N2O2
Exact mass: 256.1211778
SMILES: CC(C)NC1=CC(=O)C(=CC1=O)NC2=CC=CC=C2
InChI: InChI=1S/C15H16N2O2/c1-10(2)16-12-8-15(19)13(9-14(12)18)17-11-6-4-3-5-7-11/h3-10,16-17H,1-2H3
Instrument: Exploris 240 Orbitrap Thermo Scientific
Instrument type: LC-ESI-QFT
Ms type: MS2
Ion mode: POSITIVE
Ionization: ESI
Fragmentation mode: HCD
Collision energy: 180 % (nominal)
Resolution: 17500
Column name: XBridge C18 3.5um, 2.1x50mm, Waters
Retention time: 7.927 min
Base peak: 257.1283
Precursor m/z: 257.1285
Precursor type: [M+H]+
m/z	relative intensity	assigned
50.0151	208	C4H2+
51.0229	999	C4H3+
53.0024	65	C3HO+
53.0386	286	C4H5+
54.0339	123	C3H4N+
63.023	113	C5H3+
65.0386	494	C5H5+
66.0339	123	C4H4N+
66.0466	107	C5H6+
67.0417	55	C4H5N+
68.0132	229	C3H2NO+
75.0231	66	C6H3+
77.0386	897	C6H5+
78.0466	67	C6H6+
82.0526	112	C4H6N2+
89.0386	420	C7H5+
90.0466	157	C7H6+
91.0543	410	C7H7+
92.0496	44	C6H6N+
93.0573	90	C6H7N+
95.0491	302	C6H7O+
103.0539	41	C8H7+
105.0446	327	C6H5N2+
115.0542	399	C9H7+
116.0497	85	C8H6N+
117.057	181	C8H7N+
130.0651	76	C9H8N+
140.0497	88	C10H6N+
