Mass spectrum: IPPD-Q; LC-ESI-QFT; MS2; CE: 90%; R=17500; [M+H]+
Name: IPPD-Q
Name: 2-anilino-5-(propan-2-ylamino)cyclohexa-2,5-diene-1,4-dione
Formula: C15H16N2O2
Exact mass: 256.1211778
SMILES: CC(C)NC1=CC(=O)C(=CC1=O)NC2=CC=CC=C2
InChI: InChI=1S/C15H16N2O2/c1-10(2)16-12-8-15(19)13(9-14(12)18)17-11-6-4-3-5-7-11/h3-10,16-17H,1-2H3
Instrument: Exploris 240 Orbitrap Thermo Scientific
Instrument type: LC-ESI-QFT
Ms type: MS2
Ion mode: POSITIVE
Ionization: ESI
Fragmentation mode: HCD
Collision energy: 90 % (nominal)
Resolution: 17500
Column name: XBridge C18 3.5um, 2.1x50mm, Waters
Retention time: 7.927 min
Base peak: 257.1283
Precursor m/z: 257.1285
Precursor type: [M+H]+
m/z	relative intensity	assigned
53.0387	25	C4H5+
55.0179	91	C3H3O+
58.0651	103	C3H8N+
66.0339	47	C4H4N+
67.0179	29	C4H3O+
67.0542	26	C5H7+
68.0132	50	C3H2NO+
70.0288	50	C3H4NO+
77.0385	134	C6H5+
84.0443	172	C4H6NO+
91.0543	101	C7H7+
93.0571	128	C6H7N+
94.0652	70	C6H8N+
95.0366	52	C5H5NO+
95.0491	52	C6H7O+
96.0446	45	C5H6NO+
103.0544	19	C8H7+
104.0494	307	C7H6N+
105.0448	66	C6H5N2+
110.0477	52	C5H6N2O+
111.0555	57	C5H7N2O+
112.0393	40	C5H6NO2+
115.0542	377	C9H7+
116.0496	54	C8H6N+
117.0573	97	C8H7N+
117.0697	53	C9H9+
118.0653	365	C8H8N+
120.081	28	C8H10N+
124.0395	60	C6H6NO2+
128.0496	21	C9H6N+
130.0652	75	C9H8N+
132.0814	76	C9H10N+
139.0506	67	C6H7N2O2+
140.0499	24	C10H6N+
142.0651	316	C10H8N+
143.0728	81	C10H9N+
144.0446	74	C9H6NO+
144.0804	117	C10H10N+
146.0601	463	C9H8NO+
150.0555	26	C8H8NO2+
154.0648	92	C11H8N+
155.0603	35	C10H7N2+
159.0919	143	C10H11N2+
169.0524	25	C11H7NO+
169.0759	41	C11H9N2+
170.0601	459	C11H8NO+
187.0866	999	C11H11N2O+
213.0651	24	C12H9N2O2+
214.0729	105	C12H10N2O2+
216.0899	47	C12H12N2O2+
