Mass spectrum: UV-PS; LC-ESI-QFT; MS2; CE: 75%; R=17500; [M+H]+
Name: UV-PS
Name: 2-(benzotriazol-2-yl)-4-tert-butylphenol
Formula: C16H17N3O
Exact mass: 267.1371622
SMILES: CC(C)(C)C1=CC(=C(C=C1)O)N2N=C3C=CC=CC3=N2
InChI: InChI=1S/C16H17N3O/c1-16(2,3)11-8-9-15(20)14(10-11)19-17-12-6-4-5-7-13(12)18-19/h4-10,20H,1-3H3
Instrument: Exploris 240 Orbitrap Thermo Scientific
Instrument type: LC-ESI-QFT
Ms type: MS2
Ion mode: POSITIVE
Ionization: ESI
Fragmentation mode: HCD
Collision energy: 75 % (nominal)
Resolution: 17500
Column name: XBridge C18 3.5um, 2.1x50mm, Waters
Retention time: 15.802 min
Base peak: 268.1445
Precursor m/z: 268.1444
Precursor type: [M+H]+
m/z	relative intensity	assigned
57.0699	999	C4H9+
65.0386	160	C5H5+
91.0418	27	C6H5N+
91.054	58	C7H7+
92.0495	90	C6H6N+
93.0335	98	C6H5O+
93.0703	14	C7H9+
105.07	23	C8H9+
109.065	56	C7H9O+
120.0557	124	C6H6N3+
121.0653	54	C8H9O+
128.0621	18	C10H8+
129.0696	63	C10H9+
133.0642	13	C9H9O+
133.0763	12	C8H9N2+
134.0722	40	C9H10O+
139.0545	33	C11H7+
154.0651	8	C11H8N+
155.0729	11	C11H9N+
156.081	30	C11H10N+
166.0654	76	C12H8N+
167.0731	33	C12H9N+
183.067	64	C12H9NO+
210.0921	25	C14H12NO+
212.0818	220	C12H10N3O+
