Mass spectrum: Silibinin; LC-ESI-QFT; MS2; CE: 60%; R=17500; [M+H]+
Name: Silibinin
Name: Silymarin
Name: 3,5,7-trihydroxy-2-[3-(4-hydroxy-3-methoxyphenyl)-2-(hydroxymethyl)-2,3-dihydro-1,4-benzodioxin-6-yl]-2,3-dihydrochromen-4-one
Formula: C25H22O10
Exact mass: 482.1212969
SMILES: COC1=C(C=CC(=C1)C2C(OC3=C(O2)C=C(C=C3)C4C(C(=O)C5=C(C=C(C=C5O4)O)O)O)CO)O
InChI: InChI=1S/C25H22O10/c1-32-17-6-11(2-4-14(17)28)24-20(10-26)33-16-5-3-12(7-18(16)34-24)25-23(31)22(30)21-15(29)8-13(27)9-19(21)35-25/h2-9,20,23-29,31H,10H2,1H3
Instrument: Exploris 240 Orbitrap Thermo Scientific
Instrument type: LC-ESI-QFT
Ms type: MS2
Ion mode: POSITIVE
Ionization: ESI
Fragmentation mode: HCD
Collision energy: 60 % (nominal)
Resolution: 17500
Column name: XBridge C18 3.5um, 2.1x50mm, Waters
Retention time: 6.153 min
Base peak: 483.1283
Precursor m/z: 483.1286
Precursor type: [M+H]+
m/z	relative intensity	assigned
55.0179	12	C3H3O+
65.0386	49	C5H5+
67.0179	33	C4H3O+
68.9973	32	C3HO2+
77.0386	12	C6H5+
89.0385	15	C7H5+
91.0541	78	C7H7+
93.0335	36	C6H5O+
95.0493	9	C6H7O+
102.0464	41	C8H6+
103.0541	131	C8H7+
105.0334	36	C7H5O+
105.0698	28	C8H9+
107.0491	47	C7H7O+
109.0284	12	C6H5O2+
111.0442	71	C6H7O2+
117.0334	25	C8H5O+
119.0492	117	C8H7O+
121.0284	169	C7H5O2+
121.0649	44	C8H9O+
122.0365	19	C7H6O2+
123.0441	39	C7H7O2+
124.0519	53	C7H8O2+
127.0392	12	C6H7O3+
130.0414	144	C9H6O+
131.0491	304	C9H7O+
133.0283	174	C8H5O2+
133.0644	25	C9H9O+
134.036	15	C8H6O2+
135.0441	56	C8H7O2+
137.0596	282	C8H9O2+
139.0391	128	C7H7O3+
145.0653	15	C10H9O+
146.0363	37	C9H6O2+
147.044	323	C9H7O2+
149.0233	503	C8H5O3+
149.0595	222	C9H9O2+
150.0674	145	C9H10O2+
151.0754	17	C9H11O2+
153.0182	999	C7H5O4+
157.0653	14	C11H9O+
159.0439	66	C10H7O2+
161.0596	94	C10H9O2+
162.0676	223	C10H10O2+
167.0341	80	C8H7O4+
173.0596	55	C11H9O2+
177.0549	36	C10H9O3+
181.0646	19	C13H9O+
183.0441	22	C12H7O2+
185.0599	16	C12H9O2+
187.0394	32	C11H7O3+
195.029	151	C9H7O5+
195.0802	32	C14H11O+
197.0597	26	C13H9O2+
201.0548	92	C12H9O3+
205.0645	17	C15H9O+
211.0748	21	C14H11O2+
213.0546	127	C13H9O3+
223.0753	36	C15H11O2+
229.0496	150	C13H9O4+
231.0658	28	C13H11O4+
239.0705	27	C15H11O3+
241.0497	67	C14H9O4+
242.0567	52	C14H10O4+
251.0714	34	C16H11O3+
255.065	25	C15H11O4+
257.0437	52	C14H9O5+
