Mass spectrum: Kaempferol; LC-ESI-QFT; MS2; CE: 90%; R=17500; [M+H]+
Name: Kaempferol
Name: 3,5,7-trihydroxy-2-(4-hydroxyphenyl)chromen-4-one
Formula: C15H10O6
Exact mass: 286.047738
SMILES: C1=CC(=CC=C1C2=C(C(=O)C3=C(C=C(C=C3O2)O)O)O)O
InChI: InChI=1S/C15H10O6/c16-8-3-1-7(2-4-8)15-14(20)13(19)12-10(18)5-9(17)6-11(12)21-15/h1-6,16-18,20H
Instrument: Exploris 240 Orbitrap Thermo Scientific
Instrument type: LC-ESI-QFT
Ms type: MS2
Ion mode: POSITIVE
Ionization: ESI
Fragmentation mode: HCD
Collision energy: 90 % (nominal)
Resolution: 17500
Column name: XBridge C18 3.5um, 2.1x50mm, Waters
Retention time: 6.956 min
Base peak: 287.0548
Precursor m/z: 287.055
Precursor type: [M+H]+
m/z	relative intensity	assigned
53.0386	72	C4H5+
55.0179	53	C3H3O+
65.0386	142	C5H5+
67.0178	109	C4H3O+
68.9971	753	C3HO2+
69.0334	115	C4H5O+
77.0386	116	C6H5+
79.018	21	C5H3O+
79.0542	145	C6H7+
81.0336	103	C5H5O+
83.0126	25	C4H3O2+
91.0544	37	C7H7+
93.0334	60	C6H5O+
95.0495	60	C6H7O+
97.0285	67	C5H5O2+
103.0542	24	C8H7+
105.0336	96	C7H5O+
107.0491	192	C7H7O+
108.0205	24	C6H4O2+
109.0283	100	C6H5O2+
111.0078	50	C5H3O3+
111.0445	44	C6H7O2+
115.0543	88	C9H7+
119.0494	80	C8H7O+
121.0285	595	C7H5O2+
127.054	34	C10H7+
128.0621	126	C10H8+
131.0492	38	C9H7O+
136.0154	16	C7H4O3+
137.0235	126	C7H5O3+
139.0546	46	C11H7+
141.07	23	C11H9+
143.049	30	C10H7O+
145.0286	18	C9H5O2+
145.0655	31	C10H9O+
147.0443	78	C9H7O2+
153.0183	999	C7H5O4+
157.0647	185	C11H9O+
165.0181	59	C8H5O4+
171.0444	45	C11H7O2+
184.0517	19	C12H8O2+
185.0599	47	C12H9O2+
213.0545	158	C13H9O3+
216.0423	29	C12H8O4+
229.0492	69	C13H9O4+
287.0555	27	C15H11O6+
