Mass spectrum: DPPD; LC-ESI-QFT; MS2; CE: 180%; R=17500; [M+H]+
Name: DPPD
Name: 1-N,4-N-diphenylbenzene-1,4-diamine
Formula: C18H16N2
Exact mass: 260.1313485
SMILES: C1=CC=C(C=C1)NC2=CC=C(C=C2)NC3=CC=CC=C3
InChI: InChI=1S/C18H16N2/c1-3-7-15(8-4-1)19-17-11-13-18(14-12-17)20-16-9-5-2-6-10-16/h1-14,19-20H
Instrument: Exploris 240 Orbitrap Thermo Scientific
Instrument type: LC-ESI-QFT
Ms type: MS2
Ion mode: POSITIVE
Ionization: ESI
Fragmentation mode: HCD
Collision energy: 180 % (nominal)
Resolution: 17500
Column name: XBridge C18 3.5um, 2.1x50mm, Waters
Retention time: 11.735 min
Base peak: 261.1383
Precursor m/z: 261.1386
Precursor type: [M+H]+
m/z	relative intensity	assigned
51.0229	83	C4H3+
53.0386	270	C4H5+
63.023	89	C5H3+
64.0309	9	C5H4+
65.0385	108	C5H5+
66.0465	58	C5H6+
77.0387	49	C6H5+
78.0335	18	C5H4N+
80.0494	999	C5H6N+
89.0384	22	C7H5+
90.034	26	C6H4N+
91.0418	38	C6H5N+
93.0572	22	C6H7N+
103.054	13	C8H7+
105.0447	33	C6H5N2+
107.0604	215	C6H7N2+
115.0541	61	C9H7+
117.0576	20	C8H7N+
128.0623	56	C10H8+
139.0544	78	C11H7+
140.0492	58	C10H6N+
154.0648	26	C11H8N+
166.0658	47	C12H8N+
167.0728	52	C12H9N+
181.0761	23	C12H9N2+
182.0835	14	C12H10N2+
