Mass spectrum: Idebenone; LC-ESI-QFT; MS2; CE: 30%; R=17500; [M+H]+
Name: Idebenone
Name: 2-(10-hydroxydecyl)-5,6-dimethoxy-3-methylcyclohexa-2,5-diene-1,4-dione
Formula: C19H30O5
Exact mass: 338.2093241
SMILES: CC1=C(C(=O)C(=C(C1=O)OC)OC)CCCCCCCCCCO
InChI: InChI=1S/C19H30O5/c1-14-15(12-10-8-6-4-5-7-9-11-13-20)17(22)19(24-3)18(23-2)16(14)21/h20H,4-13H2,1-3H3
Instrument: Exploris 240 Orbitrap Thermo Scientific
Instrument type: LC-ESI-QFT
Ms type: MS2
Ion mode: POSITIVE
Ionization: ESI
Fragmentation mode: HCD
Collision energy: 30 % (nominal)
Resolution: 17500
Column name: XBridge C18 3.5um, 2.1x50mm, Waters
Retention time: 12.384 min
Base peak: 339.2163
Precursor m/z: 339.2166
Precursor type: [M+H]+
m/z	relative intensity	assigned
55.0542	8	C4H7+
57.0697	7	C4H9+
67.0539	18	C5H7+
69.0698	18	C5H9+
81.0699	35	C6H9+
83.0854	12	C6H11+
95.0853	42	C7H11+
121.0645	11	C8H9O+
145.1012	10	C11H13+
151.0751	12	C9H11O2+
151.1486	5	C11H19+
153.0547	7	C8H9O3+
163.1121	11	C11H15O+
167.0704	32	C9H11O3+
169.0852	7	C9H13O3+
171.0654	14	C8H11O4+
173.0595	8	C11H9O2+
175.075	7	C11H11O2+
177.0542	21	C10H9O3+
177.0911	21	C11H13O2+
181.0855	36	C10H13O3+
183.0649	48	C9H11O4+
187.0755	10	C12H11O2+
187.1115	8	C13H15O+
191.0701	30	C11H11O3+
193.0861	20	C11H13O3+
195.1012	6	C11H15O3+
197.0807	999	C10H13O4+
207.1014	30	C12H15O3+
209.0808	29	C11H13O4+
211.0966	14	C11H15O4+
219.1013	16	C13H15O3+
221.1177	11	C13H17O3+
223.0964	66	C12H15O4+
229.1589	20	C16H21O+
261.1847	82	C17H25O2+
289.1797	150	C18H25O3+
290.1883	25	C18H26O3+
293.2116	35	C18H29O3+
303.1965	12	C19H27O3+
321.2058	101	C19H29O4+
339.2177	14	C19H31O5+
