Mass spectrum: AO1098; LC-ESI-QFT; MS2; CE: 120%; R=17500; [M+H]+
Name: AO1098
Name: Benzenepropanamide, N,N`-1,6-hexanediylbis(3,5-bis(1,1-dimethylethyl)-4-hydroxy-
Name: 3-(3,5-ditert-butyl-4-hydroxyphenyl)-N-[6-[3-(3,5-ditert-butyl-4-hydroxyphenyl)propanoylamino]hexyl]propanamide
Formula: C40H64N2O4
Exact mass: 636.4866
SMILES: CC(C)(C)C1=CC(=CC(=C1O)C(C)(C)C)CCC(=O)NCCCCCCNC(=O)CCC2=CC(=C(C(=C2)C(C)(C)C)O)C(C)(C)C
InChI: InChI=1S/C40H64N2O4/c1-37(2,3)29-23-27(24-30(35(29)45)38(4,5)6)17-19-33(43)41-21-15-13-14-16-22-42-34(44)20-18-28-25-31(39(7,8)9)36(46)32(26-28)40(10,11)12/h23-26,45-46H,13-22H2,1-12H3,(H,41,43)(H,42,44)
Instrument: Exploris 240 Orbitrap Thermo Scientific
Instrument type: LC-ESI-QFT
Ms type: MS2
Ion mode: POSITIVE
Ionization: ESI
Fragmentation mode: HCD
Collision energy: 120 % (nominal)
Resolution: 17500
Column name: XBridge C18 3.5um, 2.1x50mm, Waters
Retention time: 15.357 min
Base peak: 637.4934
Precursor m/z: 637.4939
Precursor type: [M+H]+
m/z	relative intensity	assigned
77.0387	71	C6H5+
79.0542	162	C6H7+
83.0855	63	C6H11+
91.0542	999	C7H7+
95.0492	106	C6H7O+
100.1121	253	C6H14N+
105.0449	56	C6H5N2+
105.0698	267	C8H9+
107.0491	713	C7H7O+
117.0694	141	C9H9+
119.0492	301	C8H7O+
119.0856	254	C9H11+
121.1015	69	C9H13+
129.0699	70	C10H9+
133.0649	93	C9H9O+
133.1009	84	C10H13+
147.0805	760	C10H11O+
163.1118	150	C11H15O+
202.0778	558	C16H10+
