Mass spectrum: 2,6-Di-Tert-Butyl-4-Nitrophenol; LC-ESI-QFT; MS2; CE: 150%; R=17500; [M+H]+
Name: 2,6-Di-Tert-Butyl-4-Nitrophenol
Name: 2,6-ditert-butyl-4-nitrophenol
Formula: C14H21NO3
Exact mass: 251.1521435
SMILES: CC(C)(C)C1=CC(=CC(=C1O)C(C)(C)C)[N+](=O)[O-]
InChI: InChI=1S/C14H21NO3/c1-13(2,3)10-7-9(15(17)18)8-11(12(10)16)14(4,5)6/h7-8,16H,1-6H3
Instrument: Exploris 240 Orbitrap Thermo Scientific
Instrument type: LC-ESI-QFT
Ms type: MS2
Ion mode: POSITIVE
Ionization: ESI
Fragmentation mode: HCD
Collision energy: 150 % (nominal)
Resolution: 17500
Column name: XBridge C18 3.5um, 2.1x50mm, Waters
Retention time: 13.507 min
Base peak: 252.1592
Precursor m/z: 252.1594
Precursor type: [M+H]+
m/z	relative intensity	assigned
51.023	93	C4H3+
53.0386	136	C4H5+
55.0543	85	C4H7+
57.0699	75	C4H9+
65.0386	273	C5H5+
67.0542	51	C5H7+
77.0386	397	C6H5+
78.0465	52	C6H6+
79.0543	336	C6H7+
91.0542	999	C7H7+
93.0699	42	C7H9+
95.0489	152	C6H7O+
103.0541	146	C8H7+
104.0625	47	C8H8+
105.07	242	C8H9+
107.0492	55	C7H7O+
115.0541	328	C9H7+
116.0624	58	C9H8+
117.07	132	C9H9+
119.0855	103	C9H11+
128.0623	121	C10H8+
129.0694	36	C10H9+
131.049	25	C9H7O+
141.0702	63	C11H9+
145.0648	116	C10H9O+
