Mass spectrum: IPPD-Q; LC-ESI-QFT; MS2; CE: 75%; R=17500; [M+H]+
Name: IPPD-Q
Name: 2-anilino-5-(propan-2-ylamino)cyclohexa-2,5-diene-1,4-dione
Formula: C15H16N2O2
Exact mass: 256.1211778
SMILES: CC(C)NC1=CC(=O)C(=CC1=O)NC2=CC=CC=C2
InChI: InChI=1S/C15H16N2O2/c1-10(2)16-12-8-15(19)13(9-14(12)18)17-11-6-4-3-5-7-11/h3-10,16-17H,1-2H3
Instrument: Exploris 240 Orbitrap Thermo Scientific
Instrument type: LC-ESI-QFT
Ms type: MS2
Ion mode: POSITIVE
Ionization: ESI
Fragmentation mode: HCD
Collision energy: 75 % (nominal)
Resolution: 17500
Column name: XBridge C18 3.5um, 2.1x50mm, Waters
Retention time: 7.927 min
Base peak: 257.1283
Precursor m/z: 257.1285
Precursor type: [M+H]+
m/z	relative intensity	assigned
55.0179	49	C3H3O+
58.0651	74	C3H8N+
67.0178	8	C4H3O+
70.0288	14	C3H4NO+
77.0387	16	C6H5+
84.0443	67	C4H6NO+
91.0544	14	C7H7+
93.0573	28	C6H7N+
94.0651	26	C6H8N+
95.0368	11	C5H5NO+
104.0495	73	C7H6N+
110.0473	10	C5H6N2O+
112.0391	25	C5H6NO2+
115.0543	46	C9H7+
117.0578	16	C8H7N+
117.0699	24	C9H9+
118.0651	82	C8H8N+
120.0809	15	C8H10N+
123.0441	16	C7H7O2+
124.0391	25	C6H6NO2+
130.0653	21	C9H8N+
132.0806	14	C9H10N+
139.0507	16	C6H7N2O2+
142.0654	78	C10H8N+
143.0732	14	C10H9N+
144.0446	25	C9H6NO+
144.081	64	C10H10N+
146.0602	113	C9H8NO+
154.0655	34	C11H8N+
158.0837	29	C10H10N2+
159.0917	53	C10H11N2+
170.0601	255	C11H8NO+
172.0757	50	C11H10NO+
187.0867	999	C11H11N2O+
198.0546	23	C12H8NO2+
200.0713	27	C12H10NO2+
201.0785	34	C12H11NO2+
214.074	69	C12H10N2O2+
215.0819	57	C12H11N2O2+
216.0898	73	C12H12N2O2+
