Mass spectrum: DG; LC-ESI-QFT; MS2; CE: 90%; R=17500; [M+H]+
Name: DG
Name: Dodecyl gallate
Name: dodecyl 3,4,5-trihydroxybenzoate
Formula: C19H30O5
Exact mass: 338.2093
SMILES: CCCCCCCCCCCCOC(=O)C1=CC(=C(C(=C1)O)O)O
InChI: InChI=1S/C19H30O5/c1-2-3-4-5-6-7-8-9-10-11-12-24-19(23)15-13-16(20)18(22)17(21)14-15/h13-14,20-22H,2-12H2,1H3
Instrument: Exploris 240 Orbitrap Thermo Scientific
Instrument type: LC-ESI-QFT
Ms type: MS2
Ion mode: POSITIVE
Ionization: ESI
Fragmentation mode: HCD
Collision energy: 90 % (nominal)
Resolution: 17500
Column name: XBridge C18 3.5um, 2.1x50mm, Waters
Retention time: 15.167 min
Base peak: 339.2164
Precursor m/z: 339.2166
Precursor type: [M+H]+
m/z	relative intensity	assigned
53.0386	162	C4H5+
55.0179	83	C3H3O+
57.0699	261	C4H9+
69.0335	108	C4H5O+
79.0179	172	C5H3O+
81.0335	999	C5H5O+
97.0282	72	C5H5O2+
107.0127	691	C6H3O2+
109.0284	311	C6H5O2+
125.0231	143	C6H5O3+
202.0778	412	C16H10+
