Mass spectrum: 2'-Deoxyadenosine; LC-ESI-QFT; MS2; CE: 75%; R=17500; [M+H]+
Name: 2'-Deoxyadenosine
Name: 5-(6-aminopurin-9-yl)-2-(hydroxymethyl)oxolan-3-ol
Formula: C10H13N5O3
Exact mass: 251.1018393
SMILES: C1C(C(OC1N2C=NC3=C(N=CN=C32)N)CO)O
InChI: InChI=1S/C10H13N5O3/c11-9-8-10(13-3-12-9)15(4-14-8)7-1-5(17)6(2-16)18-7/h3-7,16-17H,1-2H2,(H2,11,12,13)
Instrument: Exploris 240 Orbitrap Thermo Scientific
Instrument type: LC-ESI-QFT
Ms type: MS2
Ion mode: POSITIVE
Ionization: ESI
Fragmentation mode: HCD
Collision energy: 75 % (nominal)
Resolution: 17500
Column name: XBridge C18 3.5um, 2.1x50mm, Waters
Retention time: 1.488 min
Base peak: 252.109
Precursor m/z: 252.1091
Precursor type: [M+H]+
m/z	relative intensity	assigned
53.0385	5	C4H5+
57.0335	5	C3H5O+
69.0336	19	C4H5O+
71.0492	19	C4H7O+
73.0284	36	C3H5O2+
81.0334	10	C5H5O+
94.0399	20	C4H4N3+
99.0439	13	C5H7O2+
117.0547	7	C5H9O3+
119.0352	63	C5H3N4+
136.0617	999	C5H6N5+
137.0457	7	C5H5N4O+
