Mass spectrum: 4-Hydroxybenzoic Acid; LC-ESI-QFT; MS2; CE: 120%; R=17500; [M+H]+
Name: 4-Hydroxybenzoic Acid
Formula: C7H6O3
Exact mass: 138.0316941
SMILES: C1=CC(=CC=C1C(=O)O)O
InChI: InChI=1S/C7H6O3/c8-6-3-1-5(2-4-6)7(9)10/h1-4,8H,(H,9,10)
Instrument: Exploris 240 Orbitrap Thermo Scientific
Instrument type: LC-ESI-QFT
Ms type: MS2
Ion mode: POSITIVE
Ionization: ESI
Fragmentation mode: HCD
Collision energy: 120 % (nominal)
Resolution: 17500
Column name: XBridge C18 3.5um, 2.1x50mm, Waters
Retention time: 3.282 min
Base peak: 132.9582
Precursor m/z: 139.039
Precursor type: [M+H]+
m/z	relative intensity	assigned
51.0229	299	C4H3+
53.0385	195	C4H5+
55.0179	48	C3H3O+
65.0385	999	C5H5+
67.0543	90	C5H7+
77.0385	399	C6H5+
93.0334	41	C6H5O+
95.0492	386	C6H7O+
111.0441	63	C6H7O2+
121.0285	96	C7H5O2+
