Mass spectrum: AO44B25; LC-ESI-QFT; MS2; CE: 15%; R=17500; [M-H]-
Name: AO44B25
Name: Santowhite
Name: 2-tert-butyl-4-[1-(5-tert-butyl-4-hydroxy-2-methylphenyl)butyl]-5-methylphenol
Formula: C26H38O2
Exact mass: 382.287180456
SMILES: CCCC(C1=CC(=C(C=C1C)O)C(C)(C)C)C2=CC(=C(C=C2C)O)C(C)(C)C
InChI: InChI=1S/C26H38O2/c1-10-11-18(19-14-21(25(4,5)6)23(27)12-16(19)2)20-15-22(26(7,8)9)24(28)13-17(20)3/h12-15,18,27-28H,10-11H2,1-9H3
Instrument: Exploris 240 Orbitrap Thermo Scientific
Instrument type: LC-ESI-QFT
Ms type: MS2
Ion mode: NEGATIVE
Ionization: ESI
Fragmentation mode: HCD
Collision energy: 15 % (nominal)
Resolution: 17500
Column name: XBridge C18 3.5um, 2.1x50mm, Waters
Retention time: 16.027 min
Base peak: 381.2795
Precursor m/z: 381.2799
Precursor type: [M-H]-
m/z	relative intensity	assigned
337.2172	2	C23H29O2-
381.2798	999	C26H37O2-
