Mass spectrum: 2-[3-(benzotriazol-2-yl)-4-hydroxyphenyl]ethyl 2-methylprop-2-enoate; LC-ESI-QFT; MS2; CE: 90%; R=17500; [M+H]+
Name: 2-[3-(benzotriazol-2-yl)-4-hydroxyphenyl]ethyl 2-methylprop-2-enoate
Formula: C18H17N3O3
Exact mass: 323.1269914
SMILES: CC(=C)C(=O)OCCC1=CC(=C(C=C1)O)N2N=C3C=CC=CC3=N2
InChI: InChI=1S/C18H17N3O3/c1-12(2)18(23)24-10-9-13-7-8-17(22)16(11-13)21-19-14-5-3-4-6-15(14)20-21/h3-8,11,22H,1,9-10H2,2H3
Instrument: Exploris 240 Orbitrap Thermo Scientific
Instrument type: LC-ESI-QFT
Ms type: MS2
Ion mode: POSITIVE
Ionization: ESI
Fragmentation mode: HCD
Collision energy: 90 % (nominal)
Resolution: 17500
Column name: XBridge C18 3.5um, 2.1x50mm, Waters
Retention time: 14.027 min
Base peak: 324.1341
Precursor m/z: 324.1343
Precursor type: [M+H]+
m/z	relative intensity	assigned
65.0385	225	C5H5+
77.0385	11	C6H5+
79.0417	5	C5H5N+
79.0541	30	C6H7+
80.0493	5	C5H6N+
89.0386	6	C7H5+
91.0542	999	C7H7+
92.0495	25	C6H6N+
105.0446	14	C6H5N2+
106.0526	11	C6H6N2+
106.0653	9	C7H8N+
115.0543	7	C9H7+
117.0576	7	C8H7N+
119.0494	57	C8H7O+
119.0604	10	C7H7N2+
120.0557	25	C6H6N3+
139.0543	3	C11H7+
165.0701	10	C13H9+
166.0651	13	C12H8N+
167.0729	45	C12H9N+
168.0684	9	C11H8N2+
169.0763	20	C11H9N2+
180.0805	27	C13H10N+
191.0726	11	C14H9N+
193.0757	10	C13H9N2+
