Mass spectrum: Gallic Acid; LC-ESI-QFT; MS2; CE: 120%; R=17500; [M-H]-
Name: Gallic Acid
Name: 3,4,5-trihydroxybenzoic acid
Formula: C7H6O5
Exact mass: 170.021523292
SMILES: C1=C(C=C(C(=C1O)O)O)C(=O)O
InChI: InChI=1S/C7H6O5/c8-4-1-3(7(11)12)2-5(9)6(4)10/h1-2,8-10H,(H,11,12)
Instrument: Exploris 240 Orbitrap Thermo Scientific
Instrument type: LC-ESI-QFT
Ms type: MS2
Ion mode: NEGATIVE
Ionization: ESI
Fragmentation mode: HCD
Collision energy: 120 % (nominal)
Resolution: 17500
Column name: XBridge C18 3.5um, 2.1x50mm, Waters
Retention time: 1.603 min
Base peak: 169.0142
Precursor m/z: 169.0142
Precursor type: [M-H]-
m/z	relative intensity	assigned
41.0033	257	C2HO-
43.0189	94	C2H3O-
44.9983	73	CHO2-
51.024	851	C4H3-
53.0034	132	C3HO-
55.0188	91	C3H3O-
67.019	482	C4H3O-
69.0346	452	C4H5O-
79.0189	999	C5H3O-
81.0346	41	C5H5O-
95.0141	215	C5H3O2-
97.0297	116	C5H5O2-
123.0089	183	C6H3O3-
124.0167	563	C6H4O3-
125.0245	172	C6H5O3-
