Mass spectrum: AO1024; LC-ESI-QFT; MS2; CE: 90%; R=17500; [M+H]+
Name: AO1024
Name: 1,2-Bis(3,5-di-tert-butyl-4-hydroxyhydrocinnamoyl)hydrazine
Name: 3-(3,5-ditert-butyl-4-hydroxyphenyl)-N'-[3-(3,5-ditert-butyl-4-hydroxyphenyl)propanoyl]propanehydrazide
Formula: C34H52N2O4
Exact mass: 552.3927081
SMILES: CC(C)(C)C1=CC(=CC(=C1O)C(C)(C)C)CCC(=O)NNC(=O)CCC2=CC(=C(C(=C2)C(C)(C)C)O)C(C)(C)C
InChI: InChI=1S/C34H52N2O4/c1-31(2,3)23-17-21(18-24(29(23)39)32(4,5)6)13-15-27(37)35-36-28(38)16-14-22-19-25(33(7,8)9)30(40)26(20-22)34(10,11)12/h17-20,39-40H,13-16H2,1-12H3,(H,35,37)(H,36,38)
Instrument: Exploris 240 Orbitrap Thermo Scientific
Instrument type: LC-ESI-QFT
Ms type: MS2
Ion mode: POSITIVE
Ionization: ESI
Fragmentation mode: HCD
Collision energy: 90 % (nominal)
Resolution: 17500
Column name: XBridge C18 3.5um, 2.1x50mm, Waters
Retention time: 15.091 min
Base peak: 570.4265
Precursor m/z: 553.4
Precursor type: [M+H]+
m/z	relative intensity	assigned
65.0387	5	C5H5+
67.0541	11	C5H7+
69.0699	15	C5H9+
75.0553	22	C2H7N2O+
77.0387	8	C6H5+
79.0541	13	C6H7+
81.0698	14	C6H9+
91.0542	49	C7H7+
93.0701	19	C7H9+
95.0491	6	C6H7O+
103.0542	9	C8H7+
105.0452	3	C6H5N2+
105.0699	32	C8H9+
107.0491	999	C7H7O+
117.0699	6	C9H9+
118.0653	22	C8H8N+
119.0492	38	C8H7O+
119.0855	49	C9H11+
121.0647	33	C8H9O+
121.1013	50	C9H13+
129.0699	4	C10H9+
131.0854	6	C10H11+
133.065	6	C9H9O+
133.1012	44	C10H13+
135.1164	4	C10H15+
137.0597	10	C8H9O2+
143.0853	4	C11H11+
145.1012	11	C11H13+
146.0604	28	C9H8NO+
147.0806	204	C10H11O+
149.0598	28	C9H9O2+
161.0961	13	C11H13O+
161.1326	25	C12H17+
163.1118	215	C11H15O+
170.1085	8	C13H14+
173.0961	6	C12H13O+
175.0757	2	C11H11O2+
175.148	9	C13H19+
187.1119	13	C13H15O+
188.1197	11	C13H16O+
203.1433	106	C14H19O+
219.1744	58	C15H23O+
