Mass spectrum: Curcumin; LC-ESI-QFT; MS2; CE: 75%; R=17500; [M-H]-
Name: Curcumin
Name: 1,7-Bis(4-hydroxy-3-methoxyphenyl)-1,6-heptadiene-3,5-dione
Name: 1,7-bis(4-hydroxy-3-methoxyphenyl)hepta-1,6-diene-3,5-dione
Formula: C21H20O6
Exact mass: 368.12598836
SMILES: COC1=C(C=CC(=C1)C=CC(=O)CC(=O)C=CC2=CC(=C(C=C2)O)OC)O
InChI: InChI=1S/C21H20O6/c1-26-20-11-14(5-9-18(20)24)3-7-16(22)13-17(23)8-4-15-6-10-19(25)21(12-15)27-2/h3-12,24-25H,13H2,1-2H3
Instrument: Exploris 240 Orbitrap Thermo Scientific
Instrument type: LC-ESI-QFT
Ms type: MS2
Ion mode: NEGATIVE
Ionization: ESI
Fragmentation mode: HCD
Collision energy: 75 % (nominal)
Resolution: 17500
Column name: XBridge C18 3.5um, 2.1x50mm, Waters
Retention time: 9.555 min
Base peak: 367.1185
Precursor m/z: 367.1187
Precursor type: [M-H]-
m/z	relative intensity	assigned
117.0343	4	C8H5O-
129.0347	9	C9H5O-
130.0423	13	C9H6O-
132.0215	25	C8H4O2-
133.0292	8	C8H5O2-
134.0373	999	C8H6O2-
146.0374	6	C9H6O2-
147.0451	4	C9H7O2-
149.0609	24	C9H9O2-
158.0373	147	C10H6O2-
160.017	18	C9H4O3-
173.0248	5	C10H5O3-
175.0403	5	C10H7O3-
201.0192	44	C11H5O4-
202.0269	5	C11H6O4-
