Mass spectrum: Idebenone; LC-ESI-QFT; MS2; CE: 180%; R=17500; [M+H]+
Name: Idebenone
Name: 2-(10-hydroxydecyl)-5,6-dimethoxy-3-methylcyclohexa-2,5-diene-1,4-dione
Formula: C19H30O5
Exact mass: 338.2093241
SMILES: CC1=C(C(=O)C(=C(C1=O)OC)OC)CCCCCCCCCCO
InChI: InChI=1S/C19H30O5/c1-14-15(12-10-8-6-4-5-7-9-11-13-20)17(22)19(24-3)18(23-2)16(14)21/h20H,4-13H2,1-3H3
Instrument: Exploris 240 Orbitrap Thermo Scientific
Instrument type: LC-ESI-QFT
Ms type: MS2
Ion mode: POSITIVE
Ionization: ESI
Fragmentation mode: HCD
Collision energy: 180 % (nominal)
Resolution: 17500
Column name: XBridge C18 3.5um, 2.1x50mm, Waters
Retention time: 12.384 min
Base peak: 339.2163
Precursor m/z: 339.2166
Precursor type: [M+H]+
m/z	relative intensity	assigned
51.0229	421	C4H3+
52.0308	119	C4H4+
53.0023	128	C3HO+
53.0386	571	C4H5+
55.0179	84	C3H3O+
55.0544	86	C4H7+
63.0229	112	C5H3+
65.0386	999	C5H5+
66.0464	222	C5H6+
67.018	127	C4H3O+
67.0543	110	C5H7+
68.9973	309	C3HO2+
69.0335	120	C4H5O+
77.0386	638	C6H5+
78.0465	140	C6H6+
79.0542	418	C6H7+
81.0333	64	C5H5O+
83.0491	889	C5H7O+
89.0388	191	C7H5+
91.0543	374	C7H7+
94.0413	89	C6H6O+
95.0492	315	C6H7O+
107.0495	54	C7H7O+
115.0542	156	C9H7+
128.0619	51	C10H8+
