Mass spectrum: Aureusidin; LC-ESI-QFT; MS2; CE: 180%; R=17500; [M+H]+
Name: Aureusidin
Name: 2-[(3,4-Dihydroxyphenyl)methylidene]-4,6-dihydroxy-3-benzofuranone
Name: 2-[(3,4-dihydroxyphenyl)methylidene]-4,6-dihydroxy-1-benzofuran-3-one
Formula: C15H10O6
Exact mass: 286.047738
SMILES: C1=CC(=C(C=C1C=C2C(=O)C3=C(C=C(C=C3O2)O)O)O)O
InChI: InChI=1S/C15H10O6/c16-8-5-11(19)14-12(6-8)21-13(15(14)20)4-7-1-2-9(17)10(18)3-7/h1-6,16-19H
Instrument: Exploris 240 Orbitrap Thermo Scientific
Instrument type: LC-ESI-QFT
Ms type: MS2
Ion mode: POSITIVE
Ionization: ESI
Fragmentation mode: HCD
Collision energy: 180 % (nominal)
Resolution: 17500
Column name: XBridge C18 3.5um, 2.1x50mm, Waters
Retention time: 5.270 min
Base peak: 287.0547
Precursor m/z: 287.055
Precursor type: [M+H]+
m/z	relative intensity	assigned
50.0151	126	C4H2+
51.0229	417	C4H3+
53.0022	34	C3HO+
53.0385	69	C4H5+
55.0179	55	C3H3O+
62.0151	148	C5H2+
63.0229	999	C5H3+
65.0386	135	C5H5+
67.0179	25	C4H3O+
68.9971	544	C3HO2+
75.0229	64	C6H3+
77.0386	233	C6H5+
78.0466	43	C6H6+
79.0178	14	C5H3O+
81.0334	16	C5H5O+
87.0231	46	C7H3+
89.0386	352	C7H5+
91.0542	34	C7H7+
95.0491	100	C6H7O+
102.0466	51	C8H6+
113.0384	25	C9H5+
115.0545	57	C9H7+
126.0464	24	C10H6+
127.0541	30	C10H7+
128.062	79	C10H8+
139.0543	45	C11H7+
