Mass spectrum: Irganox 1222; LC-ESI-QFT; MS2; CE: 75%; R=17500; [M+H]+
Name: Irganox 1222
Name: Diethyl ((3,5-bis(1,1-dimethylethyl)-4-hydroxyphenyl)methyl)phosphonate
Name: 2,6-ditert-butyl-4-(diethoxyphosphorylmethyl)phenol
Formula: C19H33O4P
Exact mass: 356.2116462
SMILES: CCOP(=O)(CC1=CC(=C(C(=C1)C(C)(C)C)O)C(C)(C)C)OCC
InChI: InChI=1S/C19H33O4P/c1-9-22-24(21,23-10-2)13-14-11-15(18(3,4)5)17(20)16(12-14)19(6,7)8/h11-12,20H,9-10,13H2,1-8H3
Instrument: Exploris 240 Orbitrap Thermo Scientific
Instrument type: LC-ESI-QFT
Ms type: MS2
Ion mode: POSITIVE
Ionization: ESI
Fragmentation mode: HCD
Collision energy: 75 % (nominal)
Resolution: 17500
Column name: XBridge C18 3.5um, 2.1x50mm, Waters
Retention time: 13.021 min
Base peak: 357.2186
Precursor m/z: 357.2189
Precursor type: [M+H]+
m/z	relative intensity	assigned
55.0541	7	C4H7+
57.0699	249	C4H9+
69.0698	10	C5H9+
81.0697	11	C6H9+
91.054	14	C7H7+
105.0699	15	C8H9+
107.0491	999	C7H7O+
119.0492	19	C8H7O+
119.0851	27	C9H11+
121.1012	34	C9H13+
133.1008	28	C10H13+
135.08	46	C9H11O+
145.1011	9	C11H13+
147.0804	189	C10H11O+
161.0963	11	C11H13O+
161.1329	20	C12H17+
163.1118	408	C11H15O+
187.1114	8	C13H15O+
188.1194	8	C13H16O+
189.0315	70	C7H10O4P+
203.1429	162	C14H19O+
219.1745	97	C15H23O+
