Mass spectrum: (-)-Epigallocatechin Gallate; LC-ESI-QFT; MS2; CE: 75%; R=17500; [M-H]-
Name: (-)-Epigallocatechin Gallate
Name: Tea, ext.
Name: [5,7-dihydroxy-2-(3,4,5-trihydroxyphenyl)-3,4-dihydro-2H-chromen-3-yl] 3,4,5-trihydroxybenzoate
Formula: C22H18O11
Exact mass: 458.084911396
SMILES: C1C(C(OC2=CC(=CC(=C21)O)O)C3=CC(=C(C(=C3)O)O)O)OC(=O)C4=CC(=C(C(=C4)O)O)O
InChI: InChI=1S/C22H18O11/c23-10-5-12(24)11-7-18(33-22(31)9-3-15(27)20(30)16(28)4-9)21(32-17(11)6-10)8-1-13(25)19(29)14(26)2-8/h1-6,18,21,23-30H,7H2
Instrument: Exploris 240 Orbitrap Thermo Scientific
Instrument type: LC-ESI-QFT
Ms type: MS2
Ion mode: NEGATIVE
Ionization: ESI
Fragmentation mode: HCD
Collision energy: 75 % (nominal)
Resolution: 17500
Column name: XBridge C18 3.5um, 2.1x50mm, Waters
Retention time: 3.421 min
Base peak: 457.0777
Precursor m/z: 457.0776
Precursor type: [M-H]-
m/z	relative intensity	assigned
57.0346	101	C3H5O-
69.0346	53	C4H5O-
77.0398	7	C6H5-
79.0189	36	C5H3O-
81.0346	50	C5H5O-
83.0138	30	C4H3O2-
93.0345	6	C6H5O-
95.0137	13	C5H3O2-
95.0502	16	C6H7O-
97.0295	51	C5H5O2-
105.0345	24	C7H5O-
107.0138	54	C6H3O2-
109.0294	24	C6H5O2-
111.0457	12	C6H7O2-
121.0296	9	C7H5O2-
123.0092	12	C6H3O3-
124.0166	44	C6H4O3-
125.0244	999	C6H5O3-
133.0295	11	C8H5O2-
137.0246	35	C7H5O3-
139.0401	22	C7H7O3-
151.0402	4	C8H7O3-
161.0246	28	C9H5O3-
164.0115	5	C8H4O4-
165.0191	10	C8H5O4-
166.0272	5	C8H6O4-
167.0349	10	C8H7O4-
169.0141	66	C7H5O5-
173.0614	3	C11H9O2-
175.0401	10	C10H7O3-
177.056	10	C10H9O3-
193.014	4	C9H5O5-
