Mass spectrum: 3,5-Di-Tert-Butyl-4-Hydroxybenzaldehyde; LC-ESI-QFT; MS2; CE: 90%; R=17500; [M+H]+
Name: 3,5-Di-Tert-Butyl-4-Hydroxybenzaldehyde
Name: 3,5-ditert-butyl-4-hydroxybenzaldehyde
Formula: C15H22O2
Exact mass: 234.1619799
SMILES: CC(C)(C)C1=CC(=CC(=C1O)C(C)(C)C)C=O
InChI: InChI=1S/C15H22O2/c1-14(2,3)11-7-10(9-16)8-12(13(11)17)15(4,5)6/h7-9,17H,1-6H3
Instrument: Exploris 240 Orbitrap Thermo Scientific
Instrument type: LC-ESI-QFT
Ms type: MS2
Ion mode: POSITIVE
Ionization: ESI
Fragmentation mode: HCD
Collision energy: 90 % (nominal)
Resolution: 17500
Column name: XBridge C18 3.5um, 2.1x50mm, Waters
Retention time: 11.690 min
Base peak: 235.1691
Precursor m/z: 235.1693
Precursor type: [M+H]+
m/z	relative intensity	assigned
57.0699	999	C4H9+
91.054	10	C7H7+
95.0492	27	C6H7O+
107.0492	35	C7H7O+
