Mass spectrum: Curcumin; LC-ESI-QFT; MS2; CE: 30%; R=17500; [M+H]+
Name: Curcumin
Name: 1,7-Bis(4-hydroxy-3-methoxyphenyl)-1,6-heptadiene-3,5-dione
Name: 1,7-bis(4-hydroxy-3-methoxyphenyl)hepta-1,6-diene-3,5-dione
Formula: C21H20O6
Exact mass: 368.1259884
SMILES: COC1=C(C=CC(=C1)C=CC(=O)CC(=O)C=CC2=CC(=C(C=C2)O)OC)O
InChI: InChI=1S/C21H20O6/c1-26-20-11-14(5-9-18(20)24)3-7-16(22)13-17(23)8-4-15-6-10-19(25)21(12-15)27-2/h3-12,24-25H,13H2,1-2H3
Instrument: Exploris 240 Orbitrap Thermo Scientific
Instrument type: LC-ESI-QFT
Ms type: MS2
Ion mode: POSITIVE
Ionization: ESI
Fragmentation mode: HCD
Collision energy: 30 % (nominal)
Resolution: 17500
Column name: XBridge C18 3.5um, 2.1x50mm, Waters
Retention time: 9.566 min
Base peak: 369.1332
Precursor m/z: 369.1333
Precursor type: [M+H]+
m/z	relative intensity	assigned
68.9971	6	C3HO2+
136.0521	6	C8H8O2+
137.0595	21	C8H9O2+
145.0283	27	C9H5O2+
151.0395	55	C8H7O3+
151.0754	135	C9H11O2+
161.0597	165	C10H9O2+
175.0754	110	C11H11O2+
177.0546	999	C10H9O3+
203.0697	21	C12H11O3+
213.0554	22	C13H9O3+
219.0654	61	C12H11O4+
225.0909	11	C15H13O2+
245.0808	69	C14H13O4+
253.0861	109	C16H13O3+
259.0976	29	C15H15O4+
285.1123	675	C17H17O4+
299.1273	20	C18H19O4+
369.1337	53	C21H21O6+
