Mass spectrum: DPPD; LC-ESI-QFT; MS2; CE: 150%; R=17500; [M+H]+
Name: DPPD
Name: 1-N,4-N-diphenylbenzene-1,4-diamine
Formula: C18H16N2
Exact mass: 260.1313485
SMILES: C1=CC=C(C=C1)NC2=CC=C(C=C2)NC3=CC=CC=C3
InChI: InChI=1S/C18H16N2/c1-3-7-15(8-4-1)19-17-11-13-18(14-12-17)20-16-9-5-2-6-10-16/h1-14,19-20H
Instrument: Exploris 240 Orbitrap Thermo Scientific
Instrument type: LC-ESI-QFT
Ms type: MS2
Ion mode: POSITIVE
Ionization: ESI
Fragmentation mode: HCD
Collision energy: 150 % (nominal)
Resolution: 17500
Column name: XBridge C18 3.5um, 2.1x50mm, Waters
Retention time: 11.735 min
Base peak: 261.1383
Precursor m/z: 261.1386
Precursor type: [M+H]+
m/z	relative intensity	assigned
51.0229	44	C4H3+
53.0386	106	C4H5+
63.023	49	C5H3+
65.0386	68	C5H5+
66.0464	65	C5H6+
67.0416	13	C4H5N+
77.0386	69	C6H5+
78.0339	17	C5H4N+
79.0418	17	C5H5N+
80.0494	999	C5H6N+
81.0573	30	C5H7N+
90.0337	38	C6H4N+
91.0415	49	C6H5N+
93.0573	51	C6H7N+
105.0447	40	C6H5N2+
107.0603	722	C6H7N2+
115.0542	42	C9H7+
117.0573	24	C8H7N+
118.0527	35	C7H6N2+
128.0622	64	C10H8+
129.0695	18	C10H9+
130.0651	40	C9H8N+
139.0541	71	C11H7+
140.0493	52	C10H6N+
141.0703	9	C11H9+
143.0731	13	C10H9N+
154.0649	39	C11H8N+
156.0808	33	C11H10N+
166.0653	102	C12H8N+
167.0733	137	C12H9N+
181.0757	32	C12H9N2+
182.084	41	C12H10N2+
183.0918	24	C12H11N2+
