Mass spectrum: 5-Methyl-2'-Deoxycytidine; LC-ESI-QFT; MS2; CE: 150%; R=17500; [M+H]+
Name: 5-Methyl-2'-Deoxycytidine
Name: 4-Amino-1-[4-hydroxy-5-(hydroxymethyl)tetrahydrofuran-2-yl]-5-methyl-pyrimidin-2-one
Name: 4-amino-1-[4-hydroxy-5-(hydroxymethyl)oxolan-2-yl]-5-methylpyrimidin-2-one
Formula: C10H15N3O4
Exact mass: 241.106256
SMILES: CC1=CN(C(=O)N=C1N)C2CC(C(O2)CO)O
InChI: InChI=1S/C10H15N3O4/c1-5-3-13(10(16)12-9(5)11)8-2-6(15)7(4-14)17-8/h3,6-8,14-15H,2,4H2,1H3,(H2,11,12,16)
Instrument: Exploris 240 Orbitrap Thermo Scientific
Instrument type: LC-ESI-QFT
Ms type: MS2
Ion mode: POSITIVE
Ionization: ESI
Fragmentation mode: HCD
Collision energy: 150 % (nominal)
Resolution: 17500
Column name: XBridge C18 3.5um, 2.1x50mm, Waters
Retention time: 1.351 min
Base peak: 126.0661
Precursor m/z: 242.1135
Precursor type: [M+H]+
m/z	relative intensity	assigned
53.0387	53	C4H5+
54.0338	999	C3H4N+
56.0495	623	C3H6N+
66.0339	46	C4H4N+
69.0084	27	C2HN2O+
69.0337	43	C4H5O+
71.024	99	C2H3N2O+
73.0284	32	C3H5O2+
81.0447	490	C4H5N2+
82.0288	206	C4H4NO+
83.0603	254	C4H7N2+
108.0556	113	C5H6N3+
109.0397	505	C5H5N2O+
126.0661	67	C5H8N3O+
