Mass spectrum: BHT-OH; LC-ESI-QFT; MS2; CE: 45%; R=17500; [M+H]+
Name: BHT-OH
Name: 2,6-ditert-butyl-4-hydroxy-4-methylcyclohexa-2,5-dien-1-one
Formula: C15H24O2
Exact mass: 236.17763
SMILES: CC1(C=C(C(=O)C(=C1)C(C)(C)C)C(C)(C)C)O
InChI: InChI=1S/C15H24O2/c1-13(2,3)10-8-15(7,17)9-11(12(10)16)14(4,5)6/h8-9,17H,1-7H3
Instrument: Exploris 240 Orbitrap Thermo Scientific
Instrument type: LC-ESI-QFT
Ms type: MS2
Ion mode: POSITIVE
Ionization: ESI
Fragmentation mode: HCD
Collision energy: 45 % (nominal)
Resolution: 17500
Column name: XBridge C18 3.5um, 2.1x50mm, Waters
Retention time: 10.618 min
Base peak: 237.1847
Precursor m/z: 237.1849
Precursor type: [M+H]+
m/z	relative intensity	assigned
55.0542	118	C4H7+
57.0698	999	C4H9+
59.049	12	C3H7O+
69.0697	15	C5H9+
83.0489	48	C5H7O+
83.0855	846	C6H11+
95.0853	72	C7H11+
97.0648	63	C6H9O+
99.0441	32	C5H7O2+
107.0856	14	C8H11+
109.101	34	C8H13+
121.1011	250	C9H13+
123.0802	27	C8H11O+
125.0596	701	C7H9O2+
135.1168	80	C10H15+
137.0959	142	C9H13O+
139.1117	294	C9H15O+
153.1275	27	C10H17O+
163.1116	29	C11H15O+
181.1222	659	C11H17O2+
195.1748	17	C13H23O+
