Mass spectrum: IPPD-Q; LC-ESI-QFT; MS2; CE: 120%; R=17500; [M+H]+
Name: IPPD-Q
Name: 2-anilino-5-(propan-2-ylamino)cyclohexa-2,5-diene-1,4-dione
Formula: C15H16N2O2
Exact mass: 256.1211778
SMILES: CC(C)NC1=CC(=O)C(=CC1=O)NC2=CC=CC=C2
InChI: InChI=1S/C15H16N2O2/c1-10(2)16-12-8-15(19)13(9-14(12)18)17-11-6-4-3-5-7-11/h3-10,16-17H,1-2H3
Instrument: Exploris 240 Orbitrap Thermo Scientific
Instrument type: LC-ESI-QFT
Ms type: MS2
Ion mode: POSITIVE
Ionization: ESI
Fragmentation mode: HCD
Collision energy: 120 % (nominal)
Resolution: 17500
Column name: XBridge C18 3.5um, 2.1x50mm, Waters
Retention time: 7.927 min
Base peak: 257.1283
Precursor m/z: 257.1285
Precursor type: [M+H]+
m/z	relative intensity	assigned
51.0229	96	C4H3+
53.0386	242	C4H5+
54.0339	40	C3H4N+
55.0179	101	C3H3O+
56.0496	29	C3H6N+
58.065	95	C3H8N+
65.0386	109	C5H5+
66.0339	87	C4H4N+
66.0464	52	C5H6+
67.0179	75	C4H3O+
68.0132	184	C3H2NO+
70.0289	99	C3H4NO+
77.0386	840	C6H5+
78.0465	54	C6H6+
82.0524	127	C4H6N2+
84.0445	76	C4H6NO+
89.0388	62	C7H5+
91.0541	415	C7H7+
93.0573	260	C6H7N+
94.0653	84	C6H8N+
95.0492	251	C6H7O+
96.0444	96	C5H6NO+
103.0545	74	C8H7+
104.0495	209	C7H6N+
105.0449	311	C6H5N2+
110.0476	98	C5H6N2O+
111.0554	183	C5H7N2O+
115.0543	999	C9H7+
116.0495	237	C8H6N+
117.0576	253	C8H7N+
118.0652	371	C8H8N+
124.0393	56	C6H6NO2+
128.0495	146	C9H6N+
130.0652	115	C9H8N+
140.0494	80	C10H6N+
142.0658	180	C10H8N+
143.0732	81	C10H9N+
144.0444	72	C9H6NO+
146.06	393	C9H8NO+
155.0606	53	C10H7N2+
158.0842	124	C10H10N2+
170.0602	123	C11H8NO+
187.0871	67	C11H11N2O+
213.0653	72	C12H9N2O2+
