Mass spectrum: N-6-methyl-2-deoxyadenosine; LC-ESI-QFT; MS2; CE: 150%; R=17500; [M+H]+
Name: N-6-methyl-2-deoxyadenosine
Formula: C11H15N5O3
Exact mass: 265.1174894
SMILES: CNC1=C2C(=NC=N1)N(C=N2)C3CC(C(O3)CO)O
InChI: InChI=1S/C11H15N5O3/c1-12-10-9-11(14-4-13-10)16(5-15-9)8-2-6(18)7(3-17)19-8/h4-8,17-18H,2-3H2,1H3,(H,12,13,14)
Instrument: Exploris 240 Orbitrap Thermo Scientific
Instrument type: LC-ESI-QFT
Ms type: MS2
Ion mode: POSITIVE
Ionization: ESI
Fragmentation mode: HCD
Collision energy: 150 % (nominal)
Resolution: 17500
Column name: XBridge C18 3.5um, 2.1x50mm, Waters
Retention time: 2.046 min
Base peak: 266.1245
Precursor m/z: 266.1248
Precursor type: [M+H]+
m/z	relative intensity	assigned
52.0182	80	C3H2N+
53.0386	70	C4H5+
54.0212	102	C2H2N2+
54.0339	38	C3H4N+
55.0291	256	C2H3N2+
56.037	29	C2H4N2+
57.0447	92	C2H5N2+
65.0135	50	C3HN2+
66.0212	57	C3H2N2+
67.0291	167	C3H3N2+
69.0336	70	C4H5O+
69.0447	129	C3H5N2+
73.0286	48	C3H5O2+
79.029	187	C4H3N2+
81.0322	131	C3H3N3+
81.0448	48	C4H5N2+
82.04	101	C3H4N3+
92.0244	76	C4H2N3+
94.0399	208	C4H4N3+
96.0557	78	C4H6N3+
106.0399	126	C5H4N3+
108.043	999	C4H4N4+
119.0353	114	C5H3N4+
123.0665	127	C5H7N4+
133.0512	74	C6H5N4+
135.0543	36	C5H5N5+
150.078	46	C6H8N5+
