Mass spectrum: Curcumin; LC-ESI-QFT; MS2; CE: 45%; R=17500; [M+H]+
Name: Curcumin
Name: 1,7-Bis(4-hydroxy-3-methoxyphenyl)-1,6-heptadiene-3,5-dione
Name: 1,7-bis(4-hydroxy-3-methoxyphenyl)hepta-1,6-diene-3,5-dione
Formula: C21H20O6
Exact mass: 368.1259884
SMILES: COC1=C(C=CC(=C1)C=CC(=O)CC(=O)C=CC2=CC(=C(C=C2)O)OC)O
InChI: InChI=1S/C21H20O6/c1-26-20-11-14(5-9-18(20)24)3-7-16(22)13-17(23)8-4-15-6-10-19(25)21(12-15)27-2/h3-12,24-25H,13H2,1-2H3
Instrument: Exploris 240 Orbitrap Thermo Scientific
Instrument type: LC-ESI-QFT
Ms type: MS2
Ion mode: POSITIVE
Ionization: ESI
Fragmentation mode: HCD
Collision energy: 45 % (nominal)
Resolution: 17500
Column name: XBridge C18 3.5um, 2.1x50mm, Waters
Retention time: 9.566 min
Base peak: 369.1332
Precursor m/z: 369.1333
Precursor type: [M+H]+
m/z	relative intensity	assigned
68.9971	20	C3HO2+
117.0335	25	C8H5O+
119.049	12	C8H7O+
136.0517	44	C8H8O2+
137.0597	36	C8H9O2+
145.0285	450	C9H5O2+
149.0597	19	C9H9O2+
151.0396	22	C8H7O3+
151.0754	93	C9H11O2+
161.0598	212	C10H9O2+
175.0756	33	C11H11O2+
177.0546	999	C10H9O3+
203.07	6	C12H11O3+
213.0552	10	C13H9O3+
219.065	35	C12H11O4+
225.0913	54	C15H13O2+
253.0861	179	C16H13O3+
254.0947	9	C16H14O3+
285.1124	81	C17H17O4+
