Mass spectrum: Silibinin; LC-ESI-QFT; MS2; CE: 45%; R=17500; [M-H]-
Name: Silibinin
Name: Silymarin
Name: 3,5,7-trihydroxy-2-[3-(4-hydroxy-3-methoxyphenyl)-2-(hydroxymethyl)-2,3-dihydro-1,4-benzodioxin-6-yl]-2,3-dihydrochromen-4-one
Formula: C25H22O10
Exact mass: 482.121296904
SMILES: COC1=C(C=CC(=C1)C2C(OC3=C(O2)C=C(C=C3)C4C(C(=O)C5=C(C=C(C=C5O4)O)O)O)CO)O
InChI: InChI=1S/C25H22O10/c1-32-17-6-11(2-4-14(17)28)24-20(10-26)33-16-5-3-12(7-18(16)34-24)25-23(31)22(30)21-15(29)8-13(27)9-19(21)35-25/h2-9,20,23-29,31H,10H2,1H3
Instrument: Exploris 240 Orbitrap Thermo Scientific
Instrument type: LC-ESI-QFT
Ms type: MS2
Ion mode: NEGATIVE
Ionization: ESI
Fragmentation mode: HCD
Collision energy: 45 % (nominal)
Resolution: 17500
Column name: XBridge C18 3.5um, 2.1x50mm, Waters
Retention time: 6.163 min
Base peak: 481.1138
Precursor m/z: 481.114
Precursor type: [M-H]-
m/z	relative intensity	assigned
57.0344	36	C3H5O-
65.0032	16	C4HO-
83.0138	33	C4H3O2-
95.014	16	C5H3O2-
107.0139	37	C6H3O2-
109.0295	10	C6H5O2-
111.0089	20	C5H3O3-
121.0295	34	C7H5O2-
122.0372	14	C7H6O2-
123.0084	19	C6H3O3-
124.0162	32	C6H4O3-
125.0243	999	C6H5O3-
136.0165	7	C7H4O3-
137.0246	24	C7H5O3-
139.003	10	C6H3O4-
146.0377	37	C9H6O2-
147.0086	23	C8H3O3-
147.0449	27	C9H7O2-
149.024	56	C8H5O3-
149.0606	24	C9H9O2-
151.0036	235	C7H3O4-
152.0115	671	C7H4O4-
153.0191	54	C7H5O4-
159.045	25	C10H7O2-
161.0605	33	C10H9O2-
163.0034	12	C8H3O4-
164.0479	33	C9H8O3-
165.0197	33	C8H5O4-
171.0445	16	C11H7O2-
175.0401	18	C10H7O3-
178.9985	211	C8H3O5-
179.0712	63	C10H11O3-
180.0063	127	C8H4O5-
181.0142	9	C8H5O5-
185.0602	15	C12H9O2-
187.0405	45	C11H7O3-
188.0481	15	C11H8O3-
189.0558	25	C11H9O3-
191.0345	38	C10H7O4-
211.0404	16	C13H7O3-
213.0556	19	C13H9O3-
215.0352	53	C12H7O4-
216.0426	29	C12H8O4-
217.0509	17	C12H9O4-
227.0351	22	C13H7O4-
229.0501	77	C13H9O4-
230.058	18	C13H10O4-
231.0654	11	C13H11O4-
239.0354	9	C14H7O4-
255.0301	49	C14H7O5-
257.046	40	C14H9O5-
258.0535	31	C14H10O5-
259.0603	9	C14H11O5-
273.0405	211	C14H9O6-
274.0478	25	C14H10O6-
283.0249	32	C15H7O6-
284.0329	52	C15H8O6-
285.0408	22	C15H9O6-
301.0352	152	C15H9O7-
423.1077	12	C23H19O8-
