Mass spectrum: Cis-Dihydroanatoxin-A; LC-ESI-QFT; MS2; CE: 150%; R=17500; [M+H]+
Name: Cis-Dihydroanatoxin-A
Name: 1-[(1R,2S,6R)-9-azabicyclo[4.2.1]nonan-2-yl]ethanone
Formula: C10H17NO
Exact mass: 167.1310142
SMILES: CC(=O)[C@H]1CCC[C@@H]2CC[C@H]1N2
InChI: InChI=1S/C10H17NO/c1-7(12)9-4-2-3-8-5-6-10(9)11-8/h8-11H,2-6H2,1H3/t8-,9-,10-/m1/s1
Instrument: Exploris 240 Orbitrap Thermo Scientific
Instrument type: LC-ESI-QFT
Ms type: MS2
Ion mode: POSITIVE
Ionization: ESI
Fragmentation mode: HCD
Collision energy: 150 % (nominal)
Resolution: 17500
Column name: XBridge C18 3.5um, 2.1x50mm, Waters
Retention time: 1.752 min
Base peak: 168.1382
Precursor m/z: 168.1383
Precursor type: [M+H]+
m/z	relative intensity	assigned
41.0386	94	C3H5+
43.0178	999	C2H3O+
44.0495	29	C2H6N+
51.0228	26	C4H3+
53.0386	65	C4H5+
55.0543	47	C4H7+
56.0495	445	C3H6N+
65.0386	140	C5H5+
67.0542	341	C5H7+
70.0652	18	C4H8N+
71.0491	33	C4H7O+
77.0385	101	C6H5+
79.0542	48	C6H7+
81.0698	27	C6H9+
82.0649	18	C5H8N+
91.0542	107	C7H7+
95.0494	33	C6H7O+
