Mass spectrum: Kaempferol; LC-ESI-QFT; MS2; CE: 45%; R=17500; [M+H]+
Name: Kaempferol
Name: 3,5,7-trihydroxy-2-(4-hydroxyphenyl)chromen-4-one
Formula: C15H10O6
Exact mass: 286.047738
SMILES: C1=CC(=CC=C1C2=C(C(=O)C3=C(C=C(C=C3O2)O)O)O)O
InChI: InChI=1S/C15H10O6/c16-8-3-1-7(2-4-8)15-14(20)13(19)12-10(18)5-9(17)6-11(12)21-15/h1-6,16-18,20H
Instrument: Exploris 240 Orbitrap Thermo Scientific
Instrument type: LC-ESI-QFT
Ms type: MS2
Ion mode: POSITIVE
Ionization: ESI
Fragmentation mode: HCD
Collision energy: 45 % (nominal)
Resolution: 17500
Column name: XBridge C18 3.5um, 2.1x50mm, Waters
Retention time: 6.956 min
Base peak: 287.0548
Precursor m/z: 287.055
Precursor type: [M+H]+
m/z	relative intensity	assigned
111.0077	3	C5H3O3+
121.0285	13	C7H5O2+
133.0284	5	C8H5O2+
147.0446	2	C9H7O2+
153.0181	17	C7H5O4+
165.0184	21	C8H5O4+
183.0282	3	C8H7O5+
213.0549	6	C13H9O3+
231.0649	6	C13H11O4+
241.0493	8	C14H9O4+
258.0521	5	C14H10O5+
259.0595	5	C14H11O5+
287.0551	999	C15H11O6+
