Mass spectrum: Isoliquiritigenin; LC-ESI-QFT; MS2; CE: 30%; R=17500; [M-H]-
Name: Isoliquiritigenin
Name: 1-(2,4-dihydroxyphenyl)-3-(4-hydroxyphenyl)prop-2-en-1-one
Formula: C15H12O4
Exact mass: 256.073558864
SMILES: C1=CC(=CC=C1C=CC(=O)C2=C(C=C(C=C2)O)O)O
InChI: InChI=1S/C15H12O4/c16-11-4-1-10(2-5-11)3-8-14(18)13-7-6-12(17)9-15(13)19/h1-9,16-17,19H
Instrument: Exploris 240 Orbitrap Thermo Scientific
Instrument type: LC-ESI-QFT
Ms type: MS2
Ion mode: NEGATIVE
Ionization: ESI
Fragmentation mode: HCD
Collision energy: 30 % (nominal)
Resolution: 17500
Column name: XBridge C18 3.5um, 2.1x50mm, Waters
Retention time: 7.255 min
Base peak: 255.0663
Precursor m/z: 255.0663
Precursor type: [M-H]-
m/z	relative intensity	assigned
91.019	21	C6H3O-
119.0503	623	C8H7O-
135.0088	999	C7H3O3-
153.0195	27	C7H5O4-
255.0664	803	C15H11O4-
