Mass spectrum: AO1081; LC-ESI-QFT; MS2; CE: 60%; R=17500; [M-H]-
Name: AO1081
Name: 2,2`-Thiobis(4-methyl-6-tert-butylphenol)
Name: 2-tert-butyl-6-(3-tert-butyl-2-hydroxy-5-methylphenyl)sulfanyl-4-methylphenol
Formula: C22H30O2S
Exact mass: 358.1966512
SMILES: CC1=CC(=C(C(=C1)SC2=CC(=CC(=C2O)C(C)(C)C)C)O)C(C)(C)C
InChI: InChI=1S/C22H30O2S/c1-13-9-15(21(3,4)5)19(23)17(11-13)25-18-12-14(2)10-16(20(18)24)22(6,7)8/h9-12,23-24H,1-8H3
Instrument: Exploris 240 Orbitrap Thermo Scientific
Instrument type: LC-ESI-QFT
Ms type: MS2
Ion mode: NEGATIVE
Ionization: ESI
Fragmentation mode: HCD
Collision energy: 60 % (nominal)
Resolution: 17500
Column name: XBridge C18 3.5um, 2.1x50mm, Waters
Retention time: 17.101 min
Base peak: 357.1892
Precursor m/z: 357.1894
Precursor type: [M-H]-
m/z	relative intensity	assigned
138.0145	125	C7H6OS-
149.0976	4	C10H13O-
151.0224	24	C8H7OS-
152.0301	49	C8H8OS-
153.0015	11	C7H5O2S-
163.1128	999	C11H15O-
178.0463	9	C10H10OS-
179.0536	483	C10H11OS-
193.0692	427	C11H13OS-
194.077	792	C11H14OS-
195.0842	8	C11H15OS-
