Mass spectrum: BDPA; LC-ESI-QFT; MS2; CE: 150%; R=17500; [M+H]+
Name: BDPA
Name: 4-tert-butyl-N-phenylaniline
Formula: C16H19N
Exact mass: 225.1517
SMILES: CC(C)(C)C1=CC=C(C=C1)NC2=CC=CC=C2
InChI: InChI=1S/C16H19N/c1-16(2,3)13-9-11-15(12-10-13)17-14-7-5-4-6-8-14/h4-12,17H,1-3H3
Instrument: Exploris 240 Orbitrap Thermo Scientific
Instrument type: LC-ESI-QFT
Ms type: MS2
Ion mode: POSITIVE
Ionization: ESI
Fragmentation mode: HCD
Collision energy: 150 % (nominal)
Resolution: 17500
Column name: XBridge C18 3.5um, 2.1x50mm, Waters
Retention time: 13.759 min
Base peak: 226.1587
Precursor m/z: 226.159
Precursor type: [M+H]+
m/z	relative intensity	assigned
65.0386	130	C5H5+
66.0464	163	C5H6+
79.0543	111	C6H7+
91.0542	136	C7H7+
93.0573	604	C6H7N+
94.0651	313	C6H8N+
106.0651	999	C7H8N+
115.0545	55	C9H7+
118.065	175	C8H8N+
119.0729	454	C8H9N+
134.0962	152	C9H12N+
202.0778	438	C16H10+
