Mass spectrum: DPPD; LC-ESI-QFT; MS2; CE: 90%; R=17500; [M+H]+
Name: DPPD
Name: 1-N,4-N-diphenylbenzene-1,4-diamine
Formula: C18H16N2
Exact mass: 260.1313485
SMILES: C1=CC=C(C=C1)NC2=CC=C(C=C2)NC3=CC=CC=C3
InChI: InChI=1S/C18H16N2/c1-3-7-15(8-4-1)19-17-11-13-18(14-12-17)20-16-9-5-2-6-10-16/h1-14,19-20H
Instrument: Exploris 240 Orbitrap Thermo Scientific
Instrument type: LC-ESI-QFT
Ms type: MS2
Ion mode: POSITIVE
Ionization: ESI
Fragmentation mode: HCD
Collision energy: 90 % (nominal)
Resolution: 17500
Column name: XBridge C18 3.5um, 2.1x50mm, Waters
Retention time: 11.735 min
Base peak: 261.1383
Precursor m/z: 261.1386
Precursor type: [M+H]+
m/z	relative intensity	assigned
66.0463	13	C5H6+
80.0494	29	C5H6N+
81.0572	52	C5H7N+
93.0572	22	C6H7N+
106.0523	17	C6H6N2+
107.0603	299	C6H7N2+
118.0525	43	C7H6N2+
129.0695	22	C10H9+
130.0648	12	C9H8N+
139.0543	5	C11H7+
143.0728	15	C10H9N+
144.0803	13	C10H10N+
156.0805	29	C11H10N+
157.0881	16	C11H11N+
166.0651	69	C12H8N+
167.0731	55	C12H9N+
168.0809	83	C12H10N+
183.0917	266	C12H11N2+
184.0994	999	C12H12N2+
