Mass spectrum: Idebenone; LC-ESI-QFT; MS2; CE: 15%; R=17500; [M+H]+
Name: Idebenone
Name: 2-(10-hydroxydecyl)-5,6-dimethoxy-3-methylcyclohexa-2,5-diene-1,4-dione
Formula: C19H30O5
Exact mass: 338.2093241
SMILES: CC1=C(C(=O)C(=C(C1=O)OC)OC)CCCCCCCCCCO
InChI: InChI=1S/C19H30O5/c1-14-15(12-10-8-6-4-5-7-9-11-13-20)17(22)19(24-3)18(23-2)16(14)21/h20H,4-13H2,1-3H3
Instrument: Exploris 240 Orbitrap Thermo Scientific
Instrument type: LC-ESI-QFT
Ms type: MS2
Ion mode: POSITIVE
Ionization: ESI
Fragmentation mode: HCD
Collision energy: 15 % (nominal)
Resolution: 17500
Column name: XBridge C18 3.5um, 2.1x50mm, Waters
Retention time: 12.384 min
Base peak: 339.2163
Precursor m/z: 339.2166
Precursor type: [M+H]+
m/z	relative intensity	assigned
81.0698	8	C6H9+
95.0852	5	C7H11+
137.1323	13	C10H17+
167.0702	12	C9H11O3+
183.0649	34	C9H11O4+
193.0862	5	C11H13O3+
197.0807	330	C10H13O4+
207.1016	11	C12H15O3+
219.1017	4	C13H15O3+
221.1167	7	C13H17O3+
223.097	13	C12H15O4+
229.1583	6	C16H21O+
261.1858	22	C17H25O2+
271.1696	13	C18H23O2+
289.1797	91	C18H25O3+
290.188	16	C18H26O3+
293.211	44	C18H29O3+
303.1954	8	C19H27O3+
321.2061	402	C19H29O4+
339.2165	999	C19H31O5+
