Mass spectrum: Irganox 1222; LC-ESI-QFT; MS2; CE: 180%; R=17500; [M+H]+
Name: Irganox 1222
Name: Diethyl ((3,5-bis(1,1-dimethylethyl)-4-hydroxyphenyl)methyl)phosphonate
Name: 2,6-ditert-butyl-4-(diethoxyphosphorylmethyl)phenol
Formula: C19H33O4P
Exact mass: 356.2116462
SMILES: CCOP(=O)(CC1=CC(=C(C(=C1)C(C)(C)C)O)C(C)(C)C)OCC
InChI: InChI=1S/C19H33O4P/c1-9-22-24(21,23-10-2)13-14-11-15(18(3,4)5)17(20)16(12-14)19(6,7)8/h11-12,20H,9-10,13H2,1-8H3
Instrument: Exploris 240 Orbitrap Thermo Scientific
Instrument type: LC-ESI-QFT
Ms type: MS2
Ion mode: POSITIVE
Ionization: ESI
Fragmentation mode: HCD
Collision energy: 180 % (nominal)
Resolution: 17500
Column name: XBridge C18 3.5um, 2.1x50mm, Waters
Retention time: 13.021 min
Base peak: 357.2186
Precursor m/z: 357.2189
Precursor type: [M+H]+
m/z	relative intensity	assigned
51.0229	269	C4H3+
53.0385	314	C4H5+
55.0179	122	C3H3O+
65.0386	675	C5H5+
67.0542	36	C5H7+
77.0386	678	C6H5+
78.0465	120	C6H6+
79.0542	275	C6H7+
91.0542	999	C7H7+
95.0493	247	C6H7O+
103.0541	187	C8H7+
104.0623	45	C8H8+
105.0696	163	C8H9+
107.0492	194	C7H7O+
115.0542	401	C9H7+
116.0622	35	C9H8+
117.0696	69	C9H9+
128.062	240	C10H8+
129.07	76	C10H9+
131.0492	35	C9H7O+
