Mass spectrum: OPP; LC-ESI-QFT; MS2; CE: 30%; R=17500; [M-H]-
Name: OPP
Name: 4-phenylphenol
Formula: C12H10O
Exact mass: 170.0732
SMILES: C1=CC=C(C=C1)C2=CC=C(C=C2)O
InChI: InChI=1S/C12H10O/c13-12-8-6-11(7-9-12)10-4-2-1-3-5-10/h1-9,13H
Instrument: Exploris 240 Orbitrap Thermo Scientific
Instrument type: LC-ESI-QFT
Ms type: MS2
Ion mode: NEGATIVE
Ionization: ESI
Fragmentation mode: HCD
Collision energy: 30 % (nominal)
Resolution: 17500
Column name: XBridge C18 3.5um, 2.1x50mm, Waters
Retention time: 8.282 min
Base peak: 464.0039
Precursor m/z: 169.0659
Precursor type: [M-H]-
m/z	relative intensity	assigned
169.0659	999	C12H9O-
