Mass spectrum: Silibinin; LC-ESI-QFT; MS2; CE: 30%; R=17500; [M+H]+
Name: Silibinin
Name: Silymarin
Name: 3,5,7-trihydroxy-2-[3-(4-hydroxy-3-methoxyphenyl)-2-(hydroxymethyl)-2,3-dihydro-1,4-benzodioxin-6-yl]-2,3-dihydrochromen-4-one
Formula: C25H22O10
Exact mass: 482.1212969
SMILES: COC1=C(C=CC(=C1)C2C(OC3=C(O2)C=C(C=C3)C4C(C(=O)C5=C(C=C(C=C5O4)O)O)O)CO)O
InChI: InChI=1S/C25H22O10/c1-32-17-6-11(2-4-14(17)28)24-20(10-26)33-16-5-3-12(7-18(16)34-24)25-23(31)22(30)21-15(29)8-13(27)9-19(21)35-25/h2-9,20,23-29,31H,10H2,1H3
Instrument: Exploris 240 Orbitrap Thermo Scientific
Instrument type: LC-ESI-QFT
Ms type: MS2
Ion mode: POSITIVE
Ionization: ESI
Fragmentation mode: HCD
Collision energy: 30 % (nominal)
Resolution: 17500
Column name: XBridge C18 3.5um, 2.1x50mm, Waters
Retention time: 6.153 min
Base peak: 483.1283
Precursor m/z: 483.1286
Precursor type: [M+H]+
m/z	relative intensity	assigned
119.0493	28	C8H7O+
123.044	38	C7H7O2+
127.0391	22	C6H7O3+
131.0491	436	C9H7O+
133.0281	45	C8H5O2+
135.044	57	C8H7O2+
137.0597	283	C8H9O2+
147.0442	133	C9H7O2+
149.0232	190	C8H5O3+
149.0593	51	C9H9O2+
150.0679	33	C9H10O2+
151.0753	32	C9H11O2+
153.0182	999	C7H5O4+
161.0602	97	C10H9O2+
162.0674	359	C10H10O2+
163.0753	342	C10H11O2+
165.0547	57	C9H9O3+
167.0337	166	C8H7O4+
177.0547	140	C10H9O3+
179.0698	50	C10H11O3+
180.0781	98	C10H12O3+
195.0287	552	C9H7O5+
203.0336	25	C11H7O4+
213.0546	32	C13H9O3+
215.0346	14	C12H7O4+
229.05	84	C13H9O4+
239.0711	39	C15H11O3+
241.0497	84	C14H9O4+
251.0707	64	C16H11O3+
257.0447	192	C14H9O5+
269.0819	34	C16H13O4+
271.0963	144	C16H15O4+
279.0652	18	C17H11O4+
283.0598	104	C16H11O5+
283.0971	187	C17H15O4+
285.039	67	C15H9O6+
295.0601	98	C17H11O5+
301.1076	39	C17H17O5+
311.0546	115	C17H11O6+
313.0704	29	C17H13O6+
329.0658	32	C17H13O7+
341.0655	44	C18H13O7+
387.0865	80	C23H15O6+
407.1125	157	C23H19O7+
409.1279	77	C23H21O7+
419.1126	240	C24H19O7+
433.0915	306	C24H17O8+
435.1075	152	C24H19O8+
437.1232	283	C24H21O8+
447.1073	78	C25H19O8+
465.1174	38	C25H21O9+
