Mass spectrum: Thymidine; LC-ESI-QFT; MS2; CE: 150%; R=17500; [M+H]+
Name: Thymidine
Name: 1-(2-Deoxypentofuranosyl)-4-hydroxy-5-methylpyrimidin-2(1H)-one
Name: 1-[4-hydroxy-5-(hydroxymethyl)oxolan-2-yl]-5-methylpyrimidine-2,4-dione
Formula: C10H14N2O5
Exact mass: 242.0902715
SMILES: CC1=CN(C(=O)NC1=O)C2CC(C(O2)CO)O
InChI: InChI=1S/C10H14N2O5/c1-5-3-12(10(16)11-9(5)15)8-2-6(14)7(4-13)17-8/h3,6-8,13-14H,2,4H2,1H3,(H,11,15,16)
Instrument: Exploris 240 Orbitrap Thermo Scientific
Instrument type: LC-ESI-QFT
Ms type: MS2
Ion mode: POSITIVE
Ionization: ESI
Fragmentation mode: HCD
Collision energy: 150 % (nominal)
Resolution: 17500
Column name: XBridge C18 3.5um, 2.1x50mm, Waters
Retention time: 2.021 min
Base peak: 132.9583
Precursor m/z: 243.0975
Precursor type: [M+H]+
m/z	relative intensity	assigned
53.0386	181	C4H5+
54.0339	999	C3H4N+
56.0494	406	C3H6N+
69.0334	201	C4H5O+
82.0289	101	C4H4NO+
84.0445	125	C4H6NO+
110.024	120	C5H4NO2+
