Mass spectrum: N-6-methyl-2-deoxyadenosine; LC-ESI-QFT; MS2; CE: 120%; R=17500; [M+H]+
Name: N-6-methyl-2-deoxyadenosine
Formula: C11H15N5O3
Exact mass: 265.1174894
SMILES: CNC1=C2C(=NC=N1)N(C=N2)C3CC(C(O3)CO)O
InChI: InChI=1S/C11H15N5O3/c1-12-10-9-11(14-4-13-10)16(5-15-9)8-2-6(18)7(3-17)19-8/h4-8,17-18H,2-3H2,1H3,(H,12,13,14)
Instrument: Exploris 240 Orbitrap Thermo Scientific
Instrument type: LC-ESI-QFT
Ms type: MS2
Ion mode: POSITIVE
Ionization: ESI
Fragmentation mode: HCD
Collision energy: 120 % (nominal)
Resolution: 17500
Column name: XBridge C18 3.5um, 2.1x50mm, Waters
Retention time: 2.046 min
Base peak: 266.1245
Precursor m/z: 266.1248
Precursor type: [M+H]+
m/z	relative intensity	assigned
53.0386	151	C4H5+
54.0339	29	C3H4N+
55.029	301	C2H3N2+
57.0448	306	C2H5N2+
67.0291	127	C3H3N2+
69.0335	155	C4H5O+
69.0446	211	C3H5N2+
71.0491	48	C4H7O+
73.0282	143	C3H5O2+
79.0291	164	C4H3N2+
81.0325	53	C3H3N3+
81.0447	73	C4H5N2+
82.04	258	C3H4N3+
92.0243	86	C4H2N3+
94.04	827	C4H4N3+
96.0556	325	C4H6N3+
106.04	359	C5H4N3+
108.043	999	C4H4N4+
109.051	87	C4H5N4+
119.0351	250	C5H3N4+
121.0508	78	C5H5N4+
123.0665	786	C5H7N4+
133.0508	311	C6H5N4+
135.054	271	C5H5N5+
148.0618	77	C6H6N5+
150.0775	823	C6H8N5+
