Mass spectrum: Bis(4-Octylphenyl)Amine; LC-ESI-QFT; MS2; CE: 45%; R=17500; [M+H]+
Name: Bis(4-Octylphenyl)Amine
Name: 4-octyl-N-(4-octylphenyl)aniline
Formula: C28H43N
Exact mass: 393.3395504
SMILES: CCCCCCCCC1=CC=C(C=C1)NC2=CC=C(C=C2)CCCCCCCC
InChI: InChI=1S/C28H43N/c1-3-5-7-9-11-13-15-25-17-21-27(22-18-25)29-28-23-19-26(20-24-28)16-14-12-10-8-6-4-2/h17-24,29H,3-16H2,1-2H3
Instrument: Exploris 240 Orbitrap Thermo Scientific
Instrument type: LC-ESI-QFT
Ms type: MS2
Ion mode: POSITIVE
Ionization: ESI
Fragmentation mode: HCD
Collision energy: 45 % (nominal)
Resolution: 17500
Column name: XBridge C18 3.5um, 2.1x50mm, Waters
Retention time: 22.369 min
Base peak: 394.3466
Precursor m/z: 394.3468
Precursor type: [M+H]+
m/z	relative intensity	assigned
57.0699	7	C4H9+
71.0854	3	C5H11+
92.0492	8	C6H6N+
106.0652	48	C7H8N+
170.0964	10	C12H12N+
182.0963	14	C13H12N+
205.1824	6	C14H23N+
282.2212	22	C20H28N+
294.2213	5	C21H28N+
394.3471	999	C28H44N+
