Mass spectrum: 2-(3,4-Dihydroxyphenyl)Chroman-3,5,7-Triol; LC-ESI-QFT; MS2; CE: 60%; R=17500; [M-H]-
Name: 2-(3,4-Dihydroxyphenyl)Chroman-3,5,7-Triol
Name: 2-(3,4-dihydroxyphenyl)-3,4-dihydro-2H-1-benzopyran-3,5,7-triol
Name: 2-(3,4-dihydroxyphenyl)-3,4-dihydro-2H-chromene-3,5,7-triol
Formula: C15H14O6
Exact mass: 290.079038168
SMILES: C1C(C(OC2=CC(=CC(=C21)O)O)C3=CC(=C(C=C3)O)O)O
InChI: InChI=1S/C15H14O6/c16-8-4-11(18)9-6-13(20)15(21-14(9)5-8)7-1-2-10(17)12(19)3-7/h1-5,13,15-20H,6H2
Instrument: Exploris 240 Orbitrap Thermo Scientific
Instrument type: LC-ESI-QFT
Ms type: MS2
Ion mode: NEGATIVE
Ionization: ESI
Fragmentation mode: HCD
Collision energy: 60 % (nominal)
Resolution: 17500
Column name: XBridge C18 3.5um, 2.1x50mm, Waters
Retention time: 2.883 min
Base peak: 289.0716
Precursor m/z: 289.0718
Precursor type: [M-H]-
m/z	relative intensity	assigned
57.0346	163	C3H5O-
69.0346	34	C4H5O-
80.0267	32	C5H4O-
81.0345	132	C5H5O-
83.0137	144	C4H3O2-
93.0343	56	C6H5O-
95.0142	19	C5H3O2-
95.0501	213	C6H7O-
97.0295	325	C5H5O2-
99.0452	26	C5H7O2-
105.0348	33	C7H5O-
108.022	36	C6H4O2-
109.0294	999	C6H5O2-
117.0348	16	C8H5O-
121.0294	194	C7H5O2-
122.0371	105	C7H6O2-
123.0451	945	C7H7O2-
125.0243	432	C6H5O3-
135.0449	67	C8H7O2-
137.0244	291	C7H5O3-
138.0326	62	C7H6O3-
139.0397	134	C7H7O3-
145.0299	62	C9H5O2-
146.0371	50	C9H6O2-
147.0454	16	C9H7O2-
149.0244	135	C8H5O3-
150.0324	86	C8H6O3-
151.0401	304	C8H7O3-
157.0661	26	C11H9O-
159.0449	124	C10H7O2-
160.0528	62	C10H8O2-
161.0244	24	C9H5O3-
161.0604	139	C10H9O2-
162.0325	45	C9H6O3-
164.0113	97	C8H4O4-
165.0195	54	C8H5O4-
166.0276	19	C8H6O4-
167.035	18	C8H7O4-
173.0611	66	C11H9O2-
175.0401	38	C10H7O3-
175.0764	75	C11H11O2-
177.0563	25	C10H9O3-
179.0347	24	C9H7O4-
185.0605	53	C12H9O2-
187.04	84	C11H7O3-
188.0482	112	C11H8O3-
199.0766	23	C13H11O2-
201.0563	47	C12H9O3-
202.0629	40	C12H10O3-
203.0714	207	C12H11O3-
205.0501	56	C11H9O4-
212.0488	21	C13H8O3-
221.0814	106	C12H13O4-
227.0711	28	C14H11O3-
