Mass spectrum: DBDPA; LC-ESI-QFT; MS2; CE: 120%; R=17500; [M+H]+
Name: DBDPA
Name: Bis(4-tert-butylphenyl)amine
Name: 4-tert-butyl-N-(4-tert-butylphenyl)aniline
Formula: C20H27N
Exact mass: 281.214349864
SMILES: CC(C)(C)C1=CC=C(C=C1)NC2=CC=C(C=C2)C(C)(C)C
InChI: InChI=1S/C20H27N/c1-19(2,3)15-7-11-17(12-8-15)21-18-13-9-16(10-14-18)20(4,5)6/h7-14,21H,1-6H3
Instrument: Exploris 240 Orbitrap Thermo Scientific
Instrument type: LC-ESI-QFT
Ms type: MS2
Ion mode: POSITIVE
Ionization: ESI
Fragmentation mode: HCD
Collision energy: 120 % (nominal)
Resolution: 17500
Column name: XBridge C18 3.5um, 2.1x50mm, Waters
Retention time: 16.524 min
Base peak: 282.2213
Precursor m/z: 282.2216
Precursor type: [M+H]+
m/z	relative intensity	assigned
57.0699	25	C4H9+
65.0386	26	C5H5+
77.0386	30	C6H5+
79.0541	37	C6H7+
91.0543	77	C7H7+
92.0496	16	C6H6N+
93.0574	250	C6H7N+
94.0652	320	C6H8N+
103.0543	8	C8H7+
105.0701	17	C8H9+
106.0652	999	C7H8N+
117.0698	45	C9H9+
118.0652	46	C8H8N+
119.073	241	C8H9N+
132.0803	41	C9H10N+
134.0965	849	C9H12N+
