Mass spectrum: Tinuvin144; LC-ESI-QFT; MS2; CE: 75%; R=17500; [M+H]+
Name: Tinuvin144
Name: bis(1,2,2,6,6-pentamethylpiperidin-4-yl) 2-butyl-2-[(3,5-ditert-butyl-4-hydroxyphenyl)methyl]propanedioate
Formula: C42H72N2O5
Exact mass: 684.5441234
SMILES: CCCCC(CC1=CC(=C(C(=C1)C(C)(C)C)O)C(C)(C)C)(C(=O)OC2CC(N(C(C2)(C)C)C)(C)C)C(=O)OC3CC(N(C(C3)(C)C)C)(C)C
InChI: InChI=1S/C42H72N2O5/c1-18-19-20-42(34(46)48-29-24-38(8,9)43(16)39(10,11)25-29,35(47)49-30-26-40(12,13)44(17)41(14,15)27-30)23-28-21-31(36(2,3)4)33(45)32(22-28)37(5,6)7/h21-22,29-30,45H,18-20,23-27H2,1-17H3
Instrument: Exploris 240 Orbitrap Thermo Scientific
Instrument type: LC-ESI-QFT
Ms type: MS2
Ion mode: POSITIVE
Ionization: ESI
Fragmentation mode: HCD
Collision energy: 75 % (nominal)
Resolution: 17500
Column name: XBridge C18 3.5um, 2.1x50mm, Waters
Retention time: 10.968 min
Base peak: 343.279
Precursor m/z: 685.5514
Precursor type: [M+H]+
m/z	relative intensity	assigned
72.0808	999	C4H10N+
79.0541	13	C6H7+
81.0698	68	C6H9+
84.0807	10	C5H10N+
85.0885	7	C5H11N+
86.0964	15	C5H12N+
93.07	1	C7H9+
95.0855	10	C7H11+
96.0806	2	C6H10N+
98.0964	106	C6H12N+
105.0701	1	C8H9+
119.0855	3	C9H11+
121.1011	5	C9H13+
123.1168	12	C9H15+
133.1015	3	C10H13+
154.1591	14	C10H20N+
161.096	1	C11H13O+
161.1323	2	C12H17+
163.1123	2	C11H15O+
175.1483	2	C13H19+
203.1431	39	C14H19O+
219.1744	44	C15H23O+
