Mass spectrum: AO626; LC-ESI-QFT; MS2; CE: 150%; R=17500; [M+H]+
Name: AO626
Name: 3,9-Bis(2,4-di-tert-butylphenoxy)-2,4,8,10-tetraoxa-3,9-diphosphaspiro[5.5]undecane
Name: 3,9-bis(2,4-ditert-butylphenoxy)-2,4,8,10-tetraoxa-3,9-diphosphaspiro[5.5]undecane
Formula: C33H50O6P2
Exact mass: 604.3083
SMILES: CC(C)(C)C1=CC(=C(C=C1)OP2OCC3(CO2)COP(OC3)OC4=C(C=C(C=C4)C(C)(C)C)C(C)(C)C)C(C)(C)C
InChI: InChI=1S/C33H50O6P2/c1-29(2,3)23-13-15-27(25(17-23)31(7,8)9)38-40-34-19-33(20-35-40)21-36-41(37-22-33)39-28-16-14-24(30(4,5)6)18-26(28)32(10,11)12/h13-18H,19-22H2,1-12H3
Instrument: Exploris 240 Orbitrap Thermo Scientific
Instrument type: LC-ESI-QFT
Ms type: MS2
Ion mode: POSITIVE
Ionization: ESI
Fragmentation mode: HCD
Collision energy: 150 % (nominal)
Resolution: 17500
Column name: XBridge C18 3.5um, 2.1x50mm, Waters
Retention time: 21.797 min
Base peak: 163.9764
Precursor m/z: 605.3155
Precursor type: [M+H]+
m/z	relative intensity	assigned
65.0386	311	C5H5+
77.0385	159	C6H5+
78.0464	174	C6H6+
79.0543	108	C6H7+
91.0542	999	C7H7+
95.0492	240	C6H7O+
102.0466	58	C8H6+
103.0542	191	C8H7+
104.0621	97	C8H8+
105.0695	79	C8H9+
115.0542	872	C9H7+
116.0621	126	C9H8+
117.0698	324	C9H9+
128.0621	362	C10H8+
129.0698	116	C10H9+
141.0701	144	C11H9+
152.0623	56	C12H8+
153.0701	52	C12H9+
