Mass spectrum: Bis(4-Octylphenyl)Amine; LC-ESI-QFT; MS2; CE: 180%; R=17500; [M+H]+
Name: Bis(4-Octylphenyl)Amine
Name: 4-octyl-N-(4-octylphenyl)aniline
Formula: C28H43N
Exact mass: 393.3395504
SMILES: CCCCCCCCC1=CC=C(C=C1)NC2=CC=C(C=C2)CCCCCCCC
InChI: InChI=1S/C28H43N/c1-3-5-7-9-11-13-15-25-17-21-27(22-18-25)29-28-23-19-26(20-24-28)16-14-12-10-8-6-4-2/h17-24,29H,3-16H2,1-2H3
Instrument: Exploris 240 Orbitrap Thermo Scientific
Instrument type: LC-ESI-QFT
Ms type: MS2
Ion mode: POSITIVE
Ionization: ESI
Fragmentation mode: HCD
Collision energy: 180 % (nominal)
Resolution: 17500
Column name: XBridge C18 3.5um, 2.1x50mm, Waters
Retention time: 22.369 min
Base peak: 394.3466
Precursor m/z: 394.3468
Precursor type: [M+H]+
m/z	relative intensity	assigned
51.023	216	C4H3+
53.0386	238	C4H5+
54.0339	58	C3H4N+
63.0229	153	C5H3+
65.0386	289	C5H5+
66.0341	16	C4H4N+
66.0464	57	C5H6+
67.0416	188	C4H5N+
77.0386	843	C6H5+
78.034	59	C5H4N+
78.0465	23	C6H6+
79.0543	635	C6H7+
80.0495	138	C5H6N+
89.0385	161	C7H5+
91.0419	47	C6H5N+
91.0543	52	C7H7+
93.0576	24	C6H7N+
106.0651	999	C7H8N+
115.0546	51	C9H7+
152.0627	36	C12H8+
166.0648	22	C12H8N+
