Mass spectrum: Naringenin; LC-ESI-QFT; MS2; CE: 120%; R=17500; [M+H]+
Name: Naringenin
Name: (+-)-Naringenin
Name: 5,7-dihydroxy-2-(4-hydroxyphenyl)-2,3-dihydrochromen-4-one
Formula: C15H12O5
Exact mass: 272.0684735
SMILES: C1C(OC2=CC(=CC(=C2C1=O)O)O)C3=CC=C(C=C3)O
InChI: InChI=1S/C15H12O5/c16-9-3-1-8(2-4-9)13-7-12(19)15-11(18)5-10(17)6-14(15)20-13/h1-6,13,16-18H,7H2
Instrument: Exploris 240 Orbitrap Thermo Scientific
Instrument type: LC-ESI-QFT
Ms type: MS2
Ion mode: POSITIVE
Ionization: ESI
Fragmentation mode: HCD
Collision energy: 120 % (nominal)
Resolution: 17500
Column name: XBridge C18 3.5um, 2.1x50mm, Waters
Retention time: 6.351 min
Base peak: 273.0755
Precursor m/z: 273.0757
Precursor type: [M+H]+
m/z	relative intensity	assigned
51.023	39	C4H3+
53.0385	51	C4H5+
55.0179	117	C3H3O+
65.0386	520	C5H5+
67.0177	120	C4H3O+
68.9971	436	C3HO2+
69.0335	287	C4H5O+
75.023	11	C6H3+
77.0385	117	C6H5+
79.0178	72	C5H3O+
83.0129	32	C4H3O2+
91.0542	999	C7H7+
95.0491	83	C6H7O+
97.028	70	C5H5O2+
107.0492	40	C7H7O+
115.0544	25	C9H7+
119.049	137	C8H7O+
128.0624	14	C10H8+
153.0185	182	C7H5O4+
