Mass spectrum: EQ; LC-ESI-QFT; MS2; CE: 60%; R=17500; [M+H]+
Name: EQ
Name: Ethoxyquin
Name: 6-ethoxy-2,2,4-trimethyl-1H-quinoline
Formula: C14H19NO
Exact mass: 217.1467
SMILES: CCOC1=CC2=C(C=C1)NC(C=C2C)(C)C
InChI: InChI=1S/C14H19NO/c1-5-16-11-6-7-13-12(8-11)10(2)9-14(3,4)15-13/h6-9,15H,5H2,1-4H3
Instrument: Exploris 240 Orbitrap Thermo Scientific
Instrument type: LC-ESI-QFT
Ms type: MS2
Ion mode: POSITIVE
Ionization: ESI
Fragmentation mode: HCD
Collision energy: 60 % (nominal)
Resolution: 17500
Column name: XBridge C18 3.5um, 2.1x50mm, Waters
Retention time: 5.669 min
Base peak: 218.1536
Precursor m/z: 218.1539
Precursor type: [M+H]+
m/z	relative intensity	assigned
120.0807	81	C8H10N+
122.0602	61	C7H8NO+
133.0526	56	C8H7NO+
134.0601	266	C8H8NO+
146.0601	68	C9H8NO+
147.0681	158	C9H9NO+
148.0757	798	C9H10NO+
158.0967	92	C11H12N+
160.0758	175	C10H10NO+
161.0837	122	C10H11NO+
162.0914	249	C10H12NO+
172.1122	69	C12H14N+
174.0914	439	C11H12NO+
175.0994	173	C11H13NO+
176.1071	353	C11H14NO+
188.1071	461	C12H14NO+
189.1148	257	C12H15NO+
190.1228	603	C12H16NO+
202.1228	436	C13H16NO+
218.1541	999	C14H20NO+
