Mass spectrum: AO626; LC-ESI-QFT; MS2; CE: 90%; R=17500; [M+H]+
Name: AO626
Name: 3,9-Bis(2,4-di-tert-butylphenoxy)-2,4,8,10-tetraoxa-3,9-diphosphaspiro[5.5]undecane
Name: 3,9-bis(2,4-ditert-butylphenoxy)-2,4,8,10-tetraoxa-3,9-diphosphaspiro[5.5]undecane
Formula: C33H50O6P2
Exact mass: 604.3083
SMILES: CC(C)(C)C1=CC(=C(C=C1)OP2OCC3(CO2)COP(OC3)OC4=C(C=C(C=C4)C(C)(C)C)C(C)(C)C)C(C)(C)C
InChI: InChI=1S/C33H50O6P2/c1-29(2,3)23-13-15-27(25(17-23)31(7,8)9)38-40-34-19-33(20-35-40)21-36-41(37-22-33)39-28-16-14-24(30(4,5)6)18-26(28)32(10,11)12/h13-18H,19-22H2,1-12H3
Instrument: Exploris 240 Orbitrap Thermo Scientific
Instrument type: LC-ESI-QFT
Ms type: MS2
Ion mode: POSITIVE
Ionization: ESI
Fragmentation mode: HCD
Collision energy: 90 % (nominal)
Resolution: 17500
Column name: XBridge C18 3.5um, 2.1x50mm, Waters
Retention time: 21.797 min
Base peak: 163.9764
Precursor m/z: 605.3155
Precursor type: [M+H]+
m/z	relative intensity	assigned
65.0386	145	C5H5+
67.0542	156	C5H7+
77.0388	91	C6H5+
79.0541	121	C6H7+
82.9892	72	H4O3P+
83.0491	329	C5H7O+
91.0542	999	C7H7+
95.0492	308	C6H7O+
101.0153	75	C4H6OP+
103.0546	56	C8H7+
104.062	275	C8H8+
105.0698	501	C8H9+
115.0542	382	C9H7+
116.062	81	C9H8+
117.0698	694	C9H9+
119.0257	60	C4H8O2P+
119.0856	306	C9H11+
128.0621	401	C10H8+
129.07	233	C10H9+
131.0492	77	C9H7O+
131.0854	318	C10H11+
132.0933	313	C10H12+
141.0103	66	C6H6O2P+
141.0697	493	C11H9+
142.0778	190	C11H10+
143.086	80	C11H11+
144.0571	191	C10H8O+
145.065	76	C10H9O+
147.0205	439	C5H8O3P+
147.1168	416	C11H15+
155.0853	69	C12H11+
159.0801	183	C11H11O+
167.0857	132	C13H11+
187.0307	118	C11H8OP+
223.0518	115	C11H12O3P+
