Mass spectrum: Taxifolin; LC-ESI-QFT; MS2; CE: 75%; R=17500; [M+H]+
Name: Taxifolin
Name: 3,5,7,3',4'-Pentahydroxyflavanone
Name: 2-(3,4-dihydroxyphenyl)-3,5,7-trihydroxy-2,3-dihydrochromen-4-one
Formula: C15H12O7
Exact mass: 304.0583027
SMILES: C1=CC(=C(C=C1C2C(C(=O)C3=C(C=C(C=C3O2)O)O)O)O)O
InChI: InChI=1S/C15H12O7/c16-7-4-10(19)12-11(5-7)22-15(14(21)13(12)20)6-1-2-8(17)9(18)3-6/h1-5,14-19,21H
Instrument: Exploris 240 Orbitrap Thermo Scientific
Instrument type: LC-ESI-QFT
Ms type: MS2
Ion mode: POSITIVE
Ionization: ESI
Fragmentation mode: HCD
Collision energy: 75 % (nominal)
Resolution: 17500
Column name: XBridge C18 3.5um, 2.1x50mm, Waters
Retention time: 4.381 min
Base peak: 305.0653
Precursor m/z: 305.0656
Precursor type: [M+H]+
m/z	relative intensity	assigned
55.0179	42	C3H3O+
65.0386	114	C5H5+
67.0177	55	C4H3O+
67.0541	86	C5H7+
68.9971	122	C3HO2+
69.0334	73	C4H5O+
77.0384	62	C6H5+
81.0335	22	C5H5O+
83.013	13	C4H3O2+
89.0386	29	C7H5+
93.0335	51	C6H5O+
95.049	124	C6H7O+
97.0284	30	C5H5O2+
105.0336	87	C7H5O+
109.0288	12	C6H5O2+
111.0439	67	C6H7O2+
115.0541	20	C9H7+
117.0335	31	C8H5O+
121.0284	393	C7H5O2+
123.044	999	C7H7O2+
128.0621	26	C10H8+
129.0699	47	C10H9+
133.0285	91	C8H5O2+
135.0441	63	C8H7O2+
137.0233	39	C7H5O3+
139.039	62	C7H7O3+
139.0544	48	C11H7+
145.0649	11	C10H9O+
147.0443	44	C9H7O2+
149.0233	593	C8H5O3+
150.0311	25	C8H6O3+
153.0181	811	C7H5O4+
157.0646	190	C11H9O+
161.0231	27	C9H5O3+
163.0387	20	C9H7O3+
167.0334	15	C8H7O4+
167.0495	20	C12H7O+
171.0436	23	C11H7O2+
175.0758	25	C11H11O2+
185.0596	205	C12H9O2+
213.0548	229	C13H9O3+
231.0654	139	C13H11O4+
241.0501	41	C14H9O4+
258.0531	33	C14H10O5+
