Mass spectrum: 2`-deoxy-8-oxoguanosine; LC-ESI-QFT; MS2; CE: 45%; R=17500; [M-H]-
Name: 2`-deoxy-8-oxoguanosine
Name: CID 3964517
Name: 2-amino-9-[4-hydroxy-5-(hydroxymethyl)oxolan-2-yl]-3,7-dihydropurine-6,8-dione
Formula: C10H13N5O5
Exact mass: 283.091668516
SMILES: C1C(C(OC1N2C3=C(C(=O)NC(=N3)N)NC2=O)CO)O
InChI: InChI=1S/C10H13N5O5/c11-9-13-7-6(8(18)14-9)12-10(19)15(7)5-1-3(17)4(2-16)20-5/h3-5,16-17H,1-2H2,(H,12,19)(H3,11,13,14,18)
Instrument: Exploris 240 Orbitrap Thermo Scientific
Instrument type: LC-ESI-QFT
Ms type: MS2
Ion mode: NEGATIVE
Ionization: ESI
Fragmentation mode: HCD
Collision energy: 45 % (nominal)
Resolution: 17500
Column name: XBridge C18 3.5um, 2.1x50mm, Waters
Retention time: 1.964 min
Base peak: 282.0843
Precursor m/z: 282.0844
Precursor type: [M-H]-
m/z	relative intensity	assigned
66.0098	73	C2N3-
95.0252	10	C4H3N2O-
107.036	5	C4H3N4-
121.0519	11	C5H5N4-
122.0356	22	C5H4N3O-
123.0073	10	C4HN3O2-
123.0314	12	C4H3N4O-
124.0155	12	C4H2N3O2-
124.0514	7	C5H6N3O-
147.0314	14	C6H3N4O-
148.0029	14	C5N4O2-
148.0515	11	C7H6N3O-
148.0637	6	C8H8N2O-
149.047	117	C6H5N4O-
150.0307	168	C6H4N3O2-
151.0262	16	C5H3N4O2-
165.0291	43	C5H3N5O2-
166.037	51	C5H4N5O2-
175.0262	52	C7H3N4O2-
191.0577	31	C8H7N4O2-
192.0528	999	C7H6N5O2-
206.0686	8	C8H8N5O2-
234.0632	113	C9H8N5O3-
239.0785	7	C9H11N4O4-
240.0621	4	C9H10N3O5-
282.0845	236	C10H12N5O5-
