Mass spectrum: EQ; LC-ESI-QFT; MS2; CE: 180%; R=17500; [M+H]+
Name: EQ
Name: Ethoxyquin
Name: 6-ethoxy-2,2,4-trimethyl-1H-quinoline
Formula: C14H19NO
Exact mass: 217.1467
SMILES: CCOC1=CC2=C(C=C1)NC(C=C2C)(C)C
InChI: InChI=1S/C14H19NO/c1-5-16-11-6-7-13-12(8-11)10(2)9-14(3,4)15-13/h6-9,15H,5H2,1-4H3
Instrument: Exploris 240 Orbitrap Thermo Scientific
Instrument type: LC-ESI-QFT
Ms type: MS2
Ion mode: POSITIVE
Ionization: ESI
Fragmentation mode: HCD
Collision energy: 180 % (nominal)
Resolution: 17500
Column name: XBridge C18 3.5um, 2.1x50mm, Waters
Retention time: 5.669 min
Base peak: 218.1536
Precursor m/z: 218.1539
Precursor type: [M+H]+
m/z	relative intensity	assigned
51.023	317	C4H3+
53.0387	277	C4H5+
55.018	85	C3H3O+
65.0386	652	C5H5+
67.0544	62	C5H7+
77.0386	419	C6H5+
78.0466	197	C6H6+
79.0418	72	C5H5N+
79.0542	253	C6H7+
80.0494	173	C5H6N+
89.0386	420	C7H5+
91.0543	734	C7H7+
93.0573	69	C6H7N+
95.0491	732	C6H7O+
103.0542	303	C8H7+
104.0495	355	C7H6N+
105.0573	110	C7H7N+
115.0544	464	C9H7+
116.0499	110	C8H6N+
117.0574	718	C8H7N+
118.0652	219	C8H8N+
128.0621	187	C10H8+
130.0652	999	C9H8N+
131.073	425	C9H9N+
132.0809	60	C9H10N+
133.0524	51	C8H7NO+
143.0729	82	C10H9N+
144.0808	112	C10H10N+
146.0601	149	C9H8NO+
159.0676	88	C10H9NO+
