Mass spectrum: Irganox 1222; LC-ESI-QFT; MS2; CE: 150%; R=17500; [M+H]+
Name: Irganox 1222
Name: Diethyl ((3,5-bis(1,1-dimethylethyl)-4-hydroxyphenyl)methyl)phosphonate
Name: 2,6-ditert-butyl-4-(diethoxyphosphorylmethyl)phenol
Formula: C19H33O4P
Exact mass: 356.2116462
SMILES: CCOP(=O)(CC1=CC(=C(C(=C1)C(C)(C)C)O)C(C)(C)C)OCC
InChI: InChI=1S/C19H33O4P/c1-9-22-24(21,23-10-2)13-14-11-15(18(3,4)5)17(20)16(12-14)19(6,7)8/h11-12,20H,9-10,13H2,1-8H3
Instrument: Exploris 240 Orbitrap Thermo Scientific
Instrument type: LC-ESI-QFT
Ms type: MS2
Ion mode: POSITIVE
Ionization: ESI
Fragmentation mode: HCD
Collision energy: 150 % (nominal)
Resolution: 17500
Column name: XBridge C18 3.5um, 2.1x50mm, Waters
Retention time: 13.021 min
Base peak: 357.2186
Precursor m/z: 357.2189
Precursor type: [M+H]+
m/z	relative intensity	assigned
51.023	59	C4H3+
53.0386	152	C4H5+
55.0179	76	C3H3O+
55.0542	49	C4H7+
57.0699	46	C4H9+
65.0385	263	C5H5+
67.0542	46	C5H7+
77.0386	480	C6H5+
78.0464	42	C6H6+
79.0542	279	C6H7+
91.0542	999	C7H7+
93.0697	21	C7H9+
95.0491	143	C6H7O+
103.0543	97	C8H7+
104.062	76	C8H8+
105.0697	168	C8H9+
107.0491	577	C7H7O+
115.0543	165	C9H7+
116.0619	25	C9H8+
117.0694	82	C9H9+
119.0495	40	C8H7O+
119.0854	25	C9H11+
128.0619	95	C10H8+
129.0701	74	C10H9+
131.0494	30	C9H7O+
133.0647	24	C9H9O+
147.0803	27	C10H11O+
