Mass spectrum: Bis(4-Octylphenyl)Amine; LC-ESI-QFT; MS2; CE: 150%; R=17500; [M+H]+
Name: Bis(4-Octylphenyl)Amine
Name: 4-octyl-N-(4-octylphenyl)aniline
Formula: C28H43N
Exact mass: 393.3395504
SMILES: CCCCCCCCC1=CC=C(C=C1)NC2=CC=C(C=C2)CCCCCCCC
InChI: InChI=1S/C28H43N/c1-3-5-7-9-11-13-15-25-17-21-27(22-18-25)29-28-23-19-26(20-24-28)16-14-12-10-8-6-4-2/h17-24,29H,3-16H2,1-2H3
Instrument: Exploris 240 Orbitrap Thermo Scientific
Instrument type: LC-ESI-QFT
Ms type: MS2
Ion mode: POSITIVE
Ionization: ESI
Fragmentation mode: HCD
Collision energy: 150 % (nominal)
Resolution: 17500
Column name: XBridge C18 3.5um, 2.1x50mm, Waters
Retention time: 22.369 min
Base peak: 394.3466
Precursor m/z: 394.3468
Precursor type: [M+H]+
m/z	relative intensity	assigned
51.0229	26	C4H3+
53.0386	40	C4H5+
54.0337	11	C3H4N+
63.0229	16	C5H3+
65.0386	112	C5H5+
66.0461	13	C5H6+
67.0418	28	C4H5N+
77.0386	290	C6H5+
78.0338	21	C5H4N+
78.0466	8	C6H6+
79.0543	327	C6H7+
80.0496	46	C5H6N+
89.0386	49	C7H5+
91.0542	33	C7H7+
92.0493	10	C6H6N+
103.0544	10	C8H7+
106.0652	999	C7H8N+
115.054	16	C9H7+
152.0619	9	C12H8+
167.0725	31	C12H9N+
180.0806	18	C13H10N+
