Mass spectrum: Idebenone; LC-ESI-QFT; MS2; CE: 75%; R=17500; [M+H]+
Name: Idebenone
Name: 2-(10-hydroxydecyl)-5,6-dimethoxy-3-methylcyclohexa-2,5-diene-1,4-dione
Formula: C19H30O5
Exact mass: 338.2093241
SMILES: CC1=C(C(=O)C(=C(C1=O)OC)OC)CCCCCCCCCCO
InChI: InChI=1S/C19H30O5/c1-14-15(12-10-8-6-4-5-7-9-11-13-20)17(22)19(24-3)18(23-2)16(14)21/h20H,4-13H2,1-3H3
Instrument: Exploris 240 Orbitrap Thermo Scientific
Instrument type: LC-ESI-QFT
Ms type: MS2
Ion mode: POSITIVE
Ionization: ESI
Fragmentation mode: HCD
Collision energy: 75 % (nominal)
Resolution: 17500
Column name: XBridge C18 3.5um, 2.1x50mm, Waters
Retention time: 12.384 min
Base peak: 339.2163
Precursor m/z: 339.2166
Precursor type: [M+H]+
m/z	relative intensity	assigned
53.0386	50	C4H5+
55.0542	225	C4H7+
65.0385	34	C5H5+
67.0542	218	C5H7+
69.0333	24	C4H5O+
69.0699	92	C5H9+
77.0386	44	C6H5+
79.0542	217	C6H7+
80.0619	103	C6H8+
81.0336	31	C5H5O+
81.0698	185	C6H9+
83.0127	54	C4H3O2+
83.0493	66	C5H7O+
91.0542	217	C7H7+
93.0701	80	C7H9+
94.0414	42	C6H6O+
95.0492	49	C6H7O+
95.0855	68	C7H11+
103.0542	45	C8H7+
105.0335	42	C7H5O+
105.0698	120	C8H9+
107.0489	83	C7H7O+
108.0569	93	C7H8O+
109.0648	119	C7H9O+
111.044	328	C6H7O2+
115.0544	48	C9H7+
117.0698	102	C9H9+
119.0491	41	C8H7O+
120.0571	45	C8H8O+
121.0645	133	C8H9O+
123.0803	235	C8H11O+
124.0521	43	C7H8O2+
125.0594	22	C7H9O2+
131.049	32	C9H7O+
131.0856	44	C10H11+
133.0652	38	C9H9O+
135.0442	52	C8H7O2+
135.0808	48	C9H11O+
136.0518	381	C8H8O2+
137.0593	129	C8H9O2+
139.0393	109	C7H7O3+
139.0754	83	C8H11O2+
140.0467	54	C7H8O3+
145.0652	52	C10H9O+
147.0442	65	C9H7O2+
147.0803	37	C10H11O+
148.0522	26	C9H8O2+
149.0601	49	C9H9O2+
151.0752	301	C9H11O2+
152.0467	41	C8H8O3+
153.055	71	C8H9O3+
154.0625	999	C8H10O3+
159.0807	22	C11H11O+
161.0594	49	C10H9O2+
162.0675	39	C10H10O2+
163.0391	49	C9H7O3+
163.0753	29	C10H11O2+
164.0467	141	C9H8O3+
165.0549	47	C9H9O3+
166.0624	34	C9H10O3+
167.0337	90	C8H7O4+
167.0703	39	C9H11O3+
169.0859	177	C9H13O3+
175.039	67	C10H7O3+
176.0465	33	C10H8O3+
177.0549	58	C10H9O3+
181.05	42	C9H9O4+
181.0856	33	C10H13O3+
182.0574	329	C9H10O4+
190.0628	24	C11H10O3+
191.0709	63	C11H11O3+
197.0812	193	C10H13O4+
