Mass spectrum: THBP; LC-ESI-QFT; MS2; CE: 180%; R=17500; [M-H]-
Name: THBP
Name: 2,4,5-Trihydroxybutyrophenone
Name: 1-(2,4,5-trihydroxyphenyl)butan-1-one
Formula: C10H12O4
Exact mass: 196.0736
SMILES: CCCC(=O)C1=CC(=C(C=C1O)O)O
InChI: InChI=1S/C10H12O4/c1-2-3-7(11)6-4-9(13)10(14)5-8(6)12/h4-5,12-14H,2-3H2,1H3
Instrument: Exploris 240 Orbitrap Thermo Scientific
Instrument type: LC-ESI-QFT
Ms type: MS2
Ion mode: NEGATIVE
Ionization: ESI
Fragmentation mode: HCD
Collision energy: 180 % (nominal)
Resolution: 17500
Column name: XBridge C18 3.5um, 2.1x50mm, Waters
Retention time: 5.513 min
Base peak: 195.0661
Precursor m/z: 195.0663
Precursor type: [M-H]-
m/z	relative intensity	assigned
49.0083	401	C4H-
51.024	295	C4H3-
53.0032	258	C3HO-
65.0033	189	C4HO-
67.0189	251	C4H3O-
68.9981	345	C3HO2-
95.0139	999	C5H3O2-
123.0092	302	C6H3O3-
