Mass spectrum: EQ; LC-ESI-QFT; MS2; CE: 75%; R=17500; [M+H]+
Name: EQ
Name: Ethoxyquin
Name: 6-ethoxy-2,2,4-trimethyl-1H-quinoline
Formula: C14H19NO
Exact mass: 217.1467
SMILES: CCOC1=CC2=C(C=C1)NC(C=C2C)(C)C
InChI: InChI=1S/C14H19NO/c1-5-16-11-6-7-13-12(8-11)10(2)9-14(3,4)15-13/h6-9,15H,5H2,1-4H3
Instrument: Exploris 240 Orbitrap Thermo Scientific
Instrument type: LC-ESI-QFT
Ms type: MS2
Ion mode: POSITIVE
Ionization: ESI
Fragmentation mode: HCD
Collision energy: 75 % (nominal)
Resolution: 17500
Column name: XBridge C18 3.5um, 2.1x50mm, Waters
Retention time: 5.669 min
Base peak: 218.1536
Precursor m/z: 218.1539
Precursor type: [M+H]+
m/z	relative intensity	assigned
57.0699	67	C4H9+
79.0541	74	C6H7+
106.0652	205	C7H8N+
107.0489	82	C7H7O+
120.0808	200	C8H10N+
122.0601	184	C7H8NO+
130.0654	52	C9H8N+
133.0523	252	C8H7NO+
134.0602	606	C8H8NO+
146.06	422	C9H8NO+
146.0964	141	C10H12N+
147.068	368	C9H9NO+
148.0757	987	C9H10NO+
158.0726	82	C11H10O+
158.0966	205	C11H12N+
160.0757	707	C10H10NO+
161.0835	233	C10H11NO+
162.0913	237	C10H12NO+
172.1123	75	C12H14N+
174.0914	999	C11H12NO+
175.0993	205	C11H13NO+
176.1068	107	C11H14NO+
188.1071	677	C12H14NO+
189.1144	151	C12H15NO+
190.1226	355	C12H16NO+
202.1228	659	C13H16NO+
218.1544	197	C14H20NO+
