Mass spectrum: Ellagic Acid; LC-ESI-QFT; MS2; CE: 60%; R=17500; [M+H]+
Name: Ellagic Acid
Name: 6,7,13,14-tetrahydroxy-2,9-dioxatetracyclo[6.6.2.04,16.011,15]hexadeca-1(15),4,6,8(16),11,13-hexaene-3,10-dione
Formula: C14H6O8
Exact mass: 302.0062672
SMILES: C1=C2C3=C(C(=C1O)O)OC(=O)C4=CC(=C(C(=C43)OC2=O)O)O
InChI: InChI=1S/C14H6O8/c15-5-1-3-7-8-4(14(20)22-11(7)9(5)17)2-6(16)10(18)12(8)21-13(3)19/h1-2,15-18H
Instrument: Exploris 240 Orbitrap Thermo Scientific
Instrument type: LC-ESI-QFT
Ms type: MS2
Ion mode: POSITIVE
Ionization: ESI
Fragmentation mode: HCD
Collision energy: 60 % (nominal)
Resolution: 17500
Column name: XBridge C18 3.5um, 2.1x50mm, Waters
Retention time: 4.941 min
Base peak: 132.9582
Precursor m/z: 303.0135
Precursor type: [M+H]+
m/z	relative intensity	assigned
91.0542	18	C7H7+
147.0445	41	C9H7O2+
157.0279	26	C10H5O2+
163.039	16	C9H7O3+
173.0233	84	C10H5O3+
175.0393	41	C10H7O3+
185.0236	31	C11H5O3+
191.0343	48	C10H7O4+
201.0183	266	C11H5O4+
203.0339	72	C11H7O4+
213.0183	62	C12H5O4+
219.0285	58	C11H7O5+
229.0132	363	C12H5O5+
231.0287	168	C12H7O5+
241.0131	77	C13H5O5+
247.0237	308	C12H7O6+
257.008	999	C13H5O6+
259.0232	67	C13H7O6+
275.0187	715	C13H7O7+
285.003	428	C14H5O7+
286.0099	19	C14H6O7+
303.0136	360	C14H7O8+
