Mass spectrum: UV120; LC-ESI-QFT; MS2; CE: 150%; R=17500; [M+H]+
Name: UV120
Name: 2,4-Di-tert-butylphenyl 3',5'-di-tert-butyl-4'-hydroxybenzoate
Name: (2,4-ditert-butylphenyl) 3,5-ditert-butyl-4-hydroxybenzoate
Formula: C29H42O3
Exact mass: 438.3133952
SMILES: CC(C)(C)C1=CC(=C(C=C1)OC(=O)C2=CC(=C(C(=C2)C(C)(C)C)O)C(C)(C)C)C(C)(C)C
InChI: InChI=1S/C29H42O3/c1-26(2,3)19-13-14-23(20(17-19)27(4,5)6)32-25(31)18-15-21(28(7,8)9)24(30)22(16-18)29(10,11)12/h13-17,30H,1-12H3
Instrument: Exploris 240 Orbitrap Thermo Scientific
Instrument type: LC-ESI-QFT
Ms type: MS2
Ion mode: POSITIVE
Ionization: ESI
Fragmentation mode: HCD
Collision energy: 150 % (nominal)
Resolution: 17500
Column name: XBridge C18 3.5um, 2.1x50mm, Waters
Retention time: 18.102 min
Base peak: 439.3203
Precursor m/z: 439.3207
Precursor type: [M+H]+
m/z	relative intensity	assigned
51.023	93	C4H3+
53.0386	96	C4H5+
55.0543	49	C4H7+
57.0699	55	C4H9+
65.0386	235	C5H5+
67.0543	36	C5H7+
77.0386	401	C6H5+
78.0463	50	C6H6+
79.0543	280	C6H7+
91.0543	999	C7H7+
93.0702	29	C7H9+
94.0416	20	C6H6O+
95.0493	113	C6H7O+
103.0541	157	C8H7+
104.0622	48	C8H8+
105.0699	206	C8H9+
107.0493	42	C7H7O+
115.0542	367	C9H7+
116.0624	84	C9H8+
117.0697	134	C9H9+
119.0856	73	C9H11+
128.0622	154	C10H8+
129.07	106	C10H9+
131.0495	21	C9H7O+
141.0703	82	C11H9+
142.0779	23	C11H10+
144.0575	32	C10H8O+
145.0652	41	C10H9O+
159.0809	37	C11H11O+
