Mass spectrum: Idebenone; LC-ESI-QFT; MS2; CE: 150%; R=17500; [M+H]+
Name: Idebenone
Name: 2-(10-hydroxydecyl)-5,6-dimethoxy-3-methylcyclohexa-2,5-diene-1,4-dione
Formula: C19H30O5
Exact mass: 338.2093241
SMILES: CC1=C(C(=O)C(=C(C1=O)OC)OC)CCCCCCCCCCO
InChI: InChI=1S/C19H30O5/c1-14-15(12-10-8-6-4-5-7-9-11-13-20)17(22)19(24-3)18(23-2)16(14)21/h20H,4-13H2,1-3H3
Instrument: Exploris 240 Orbitrap Thermo Scientific
Instrument type: LC-ESI-QFT
Ms type: MS2
Ion mode: POSITIVE
Ionization: ESI
Fragmentation mode: HCD
Collision energy: 150 % (nominal)
Resolution: 17500
Column name: XBridge C18 3.5um, 2.1x50mm, Waters
Retention time: 12.384 min
Base peak: 339.2163
Precursor m/z: 339.2166
Precursor type: [M+H]+
m/z	relative intensity	assigned
51.0229	153	C4H3+
52.0308	43	C4H4+
53.0023	24	C3HO+
53.0385	364	C4H5+
54.0465	36	C4H6+
55.0179	58	C3H3O+
55.0543	127	C4H7+
63.023	23	C5H3+
65.0386	562	C5H5+
66.0463	228	C5H6+
67.0179	63	C4H3O+
67.0542	115	C5H7+
68.9971	174	C3HO2+
69.0334	58	C4H5O+
77.0386	392	C6H5+
78.0463	115	C6H6+
79.0543	550	C6H7+
80.062	93	C6H8+
81.0334	45	C5H5O+
82.0414	49	C5H6O+
83.0492	999	C5H7O+
89.0386	80	C7H5+
91.0542	425	C7H7+
93.0334	46	C6H5O+
94.0411	49	C6H6O+
95.0491	170	C6H7O+
97.0651	25	C6H9O+
103.0545	65	C8H7+
107.049	138	C7H7O+
111.0442	86	C6H7O2+
115.0546	136	C9H7+
128.0622	58	C10H8+
