Mass spectrum: Hexadecyl gallate; LC-ESI-QFT; MS2; CE: 60%; R=17500; [M+H]+
Name: Hexadecyl gallate
Name: Cetyl gallate
Name: hexadecyl 3,4,5-trihydroxybenzoate
Formula: C23H38O5
Exact mass: 394.2719243
SMILES: CCCCCCCCCCCCCCCCOC(=O)C1=CC(=C(C(=C1)O)O)O
InChI: InChI=1S/C23H38O5/c1-2-3-4-5-6-7-8-9-10-11-12-13-14-15-16-28-23(27)19-17-20(24)22(26)21(25)18-19/h17-18,24-26H,2-16H2,1H3
Instrument: Exploris 240 Orbitrap Thermo Scientific
Instrument type: LC-ESI-QFT
Ms type: MS2
Ion mode: POSITIVE
Ionization: ESI
Fragmentation mode: HCD
Collision energy: 60 % (nominal)
Resolution: 17500
Column name: XBridge C18 3.5um, 2.1x50mm, Waters
Retention time: 17.892 min
Base peak: 395.2793
Precursor m/z: 395.2792
Precursor type: [M+H]+
m/z	relative intensity	assigned
53.0386	22	C4H5+
55.018	10	C3H3O+
57.0699	344	C4H9+
69.0333	14	C4H5O+
71.0855	146	C5H11+
79.0181	15	C5H3O+
81.0335	382	C5H5O+
85.1012	23	C6H13+
97.0286	30	C5H5O2+
107.0128	478	C6H3O2+
109.0284	999	C6H5O2+
125.0234	496	C6H5O3+
127.039	693	C6H7O3+
135.0078	114	C7H3O3+
153.0183	872	C7H5O4+
171.0293	82	C7H7O5+
185.045	22	C8H9O5+
