Mass spectrum: BHT-OH; LC-ESI-QFT; MS2; CE: 60%; R=17500; [M+H]+
Name: BHT-OH
Name: 2,6-ditert-butyl-4-hydroxy-4-methylcyclohexa-2,5-dien-1-one
Formula: C15H24O2
Exact mass: 236.17763
SMILES: CC1(C=C(C(=O)C(=C1)C(C)(C)C)C(C)(C)C)O
InChI: InChI=1S/C15H24O2/c1-13(2,3)10-8-15(7,17)9-11(12(10)16)14(4,5)6/h8-9,17H,1-7H3
Instrument: Exploris 240 Orbitrap Thermo Scientific
Instrument type: LC-ESI-QFT
Ms type: MS2
Ion mode: POSITIVE
Ionization: ESI
Fragmentation mode: HCD
Collision energy: 60 % (nominal)
Resolution: 17500
Column name: XBridge C18 3.5um, 2.1x50mm, Waters
Retention time: 10.618 min
Base peak: 237.1847
Precursor m/z: 237.1849
Precursor type: [M+H]+
m/z	relative intensity	assigned
55.0542	184	C4H7+
57.0698	999	C4H9+
59.0492	20	C3H7O+
69.0698	20	C5H9+
79.0542	20	C6H7+
83.0492	82	C5H7O+
83.0855	427	C6H11+
93.07	17	C7H9+
95.0855	63	C7H11+
97.0647	100	C6H9O+
97.1011	9	C7H13+
99.0441	9	C5H7O2+
105.0699	20	C8H9+
107.049	8	C7H7O+
107.0859	16	C8H11+
109.1011	25	C8H13+
121.101	116	C9H13+
123.0805	31	C8H11O+
125.0596	387	C7H9O2+
135.1169	40	C10H15+
137.096	48	C9H13O+
139.1117	206	C9H15O+
181.1225	85	C11H17O2+
