Mass spectrum: Isoliquiritigenin; LC-ESI-QFT; MS2; CE: 120%; R=17500; [M+H]+
Name: Isoliquiritigenin
Name: 1-(2,4-dihydroxyphenyl)-3-(4-hydroxyphenyl)prop-2-en-1-one
Formula: C15H12O4
Exact mass: 256.0735589
SMILES: C1=CC(=CC=C1C=CC(=O)C2=C(C=C(C=C2)O)O)O
InChI: InChI=1S/C15H12O4/c16-11-4-1-10(2-5-11)3-8-14(18)13-7-6-12(17)9-15(13)19/h1-9,16-17,19H
Instrument: Exploris 240 Orbitrap Thermo Scientific
Instrument type: LC-ESI-QFT
Ms type: MS2
Ion mode: POSITIVE
Ionization: ESI
Fragmentation mode: HCD
Collision energy: 120 % (nominal)
Resolution: 17500
Column name: XBridge C18 3.5um, 2.1x50mm, Waters
Retention time: 7.266 min
Base peak: 257.0806
Precursor m/z: 257.0808
Precursor type: [M+H]+
m/z	relative intensity	assigned
51.0229	24	C4H3+
53.0386	323	C4H5+
55.0177	17	C3H3O+
63.0229	18	C5H3+
65.0386	344	C5H5+
68.9971	303	C3HO2+
77.0386	61	C6H5+
81.0335	999	C5H5O+
89.0384	19	C7H5+
91.0542	603	C7H7+
95.0493	45	C6H7O+
107.0494	20	C7H7O+
109.0286	28	C6H5O2+
115.0543	35	C9H7+
119.0491	81	C8H7O+
137.0233	180	C7H5O3+
152.0621	13	C12H8+
165.0704	38	C13H9+
181.0648	13	C13H9O+
