Mass spectrum: AO4426; LC-ESI-QFT; MS2; CE: 45%; R=17500; [M-H]-
Name: AO4426
Name: 4,4`-Methylenebis(2,6-DI-tert-butylphenol)
Name: 2,6-ditert-butyl-4-[(3,5-ditert-butyl-4-hydroxyphenyl)methyl]phenol
Formula: C29H44O2
Exact mass: 424.3341
SMILES: CC(C)(C)C1=CC(=CC(=C1O)C(C)(C)C)CC2=CC(=C(C(=C2)C(C)(C)C)O)C(C)(C)C
InChI: InChI=1S/C29H44O2/c1-26(2,3)20-14-18(15-21(24(20)30)27(4,5)6)13-19-16-22(28(7,8)9)25(31)23(17-19)29(10,11)12/h14-17,30-31H,13H2,1-12H3
Instrument: Exploris 240 Orbitrap Thermo Scientific
Instrument type: LC-ESI-QFT
Ms type: MS2
Ion mode: NEGATIVE
Ionization: ESI
Fragmentation mode: HCD
Collision energy: 45 % (nominal)
Resolution: 17500
Column name: XBridge C18 3.5um, 2.1x50mm, Waters
Retention time: 17.653 min
Base peak: 100.9337
Precursor m/z: 423.3269
Precursor type: [M-H]-
m/z	relative intensity	assigned
423.3268	999	C29H43O2-
