Mass spectrum: Curcumin; LC-ESI-QFT; MS2; CE: 150%; R=17500; [M+H]+
Name: Curcumin
Name: 1,7-Bis(4-hydroxy-3-methoxyphenyl)-1,6-heptadiene-3,5-dione
Name: 1,7-bis(4-hydroxy-3-methoxyphenyl)hepta-1,6-diene-3,5-dione
Formula: C21H20O6
Exact mass: 368.1259884
SMILES: COC1=C(C=CC(=C1)C=CC(=O)CC(=O)C=CC2=CC(=C(C=C2)O)OC)O
InChI: InChI=1S/C21H20O6/c1-26-20-11-14(5-9-18(20)24)3-7-16(22)13-17(23)8-4-15-6-10-19(25)21(12-15)27-2/h3-12,24-25H,13H2,1-2H3
Instrument: Exploris 240 Orbitrap Thermo Scientific
Instrument type: LC-ESI-QFT
Ms type: MS2
Ion mode: POSITIVE
Ionization: ESI
Fragmentation mode: HCD
Collision energy: 150 % (nominal)
Resolution: 17500
Column name: XBridge C18 3.5um, 2.1x50mm, Waters
Retention time: 9.566 min
Base peak: 369.1332
Precursor m/z: 369.1333
Precursor type: [M+H]+
m/z	relative intensity	assigned
50.0151	19	C4H2+
51.0229	54	C4H3+
52.0308	59	C4H4+
53.0022	5	C3HO+
53.0386	18	C4H5+
55.0178	11	C3H3O+
62.0151	23	C5H2+
63.0229	537	C5H3+
65.0386	53	C5H5+
66.0464	26	C5H6+
68.9971	32	C3HO2+
76.0307	12	C6H4+
77.0385	118	C6H5+
78.0464	323	C6H6+
89.0385	999	C7H5+
90.0467	12	C7H6+
91.0542	33	C7H7+
94.0412	29	C6H6O+
95.0491	43	C6H7O+
102.0464	10	C8H6+
103.0544	14	C8H7+
105.0335	70	C7H5O+
106.0415	20	C7H6O+
115.054	18	C9H7+
117.0333	28	C8H5O+
118.0415	27	C8H6O+
128.0618	13	C10H8+
134.0362	15	C8H6O2+
139.0545	10	C11H7+
152.0624	28	C12H8+
153.0704	15	C12H9+
164.0617	8	C13H8+
165.0704	9	C13H9+
