Mass spectrum: 2,6-Di-Tert-Butyl-4-Nitrophenol; LC-ESI-QFT; MS2; CE: 180%; R=17500; [M+H]+
Name: 2,6-Di-Tert-Butyl-4-Nitrophenol
Name: 2,6-ditert-butyl-4-nitrophenol
Formula: C14H21NO3
Exact mass: 251.1521435
SMILES: CC(C)(C)C1=CC(=CC(=C1O)C(C)(C)C)[N+](=O)[O-]
InChI: InChI=1S/C14H21NO3/c1-13(2,3)10-7-9(15(17)18)8-11(12(10)16)14(4,5)6/h7-8,16H,1-6H3
Instrument: Exploris 240 Orbitrap Thermo Scientific
Instrument type: LC-ESI-QFT
Ms type: MS2
Ion mode: POSITIVE
Ionization: ESI
Fragmentation mode: HCD
Collision energy: 180 % (nominal)
Resolution: 17500
Column name: XBridge C18 3.5um, 2.1x50mm, Waters
Retention time: 13.507 min
Base peak: 252.1592
Precursor m/z: 252.1594
Precursor type: [M+H]+
m/z	relative intensity	assigned
51.0229	252	C4H3+
53.0385	166	C4H5+
55.0542	49	C4H7+
65.0386	657	C5H5+
77.0385	471	C6H5+
78.0463	116	C6H6+
79.0541	250	C6H7+
91.0542	999	C7H7+
94.0414	44	C6H6O+
95.0492	179	C6H7O+
103.0539	147	C8H7+
104.0622	61	C8H8+
105.0697	111	C8H9+
115.0543	596	C9H7+
116.0622	62	C9H8+
117.07	85	C9H9+
128.0618	215	C10H8+
129.0698	41	C10H9+
141.0703	87	C11H9+
145.0648	74	C10H9O+
