Mass spectrum: 6PPD-Quinone; LC-ESI-QFT; MS2; CE: 45%; R=17500; [M+H]+
Name: 6PPD-Quinone
Name: 2-anilino-5-(4-methylpentan-2-ylamino)cyclohexa-2,5-diene-1,4-dione
Formula: C18H22N2O2
Exact mass: 298.1681279
SMILES: CC(C)CC(C)NC1=CC(=O)C(=CC1=O)NC2=CC=CC=C2
InChI: InChI=1S/C18H22N2O2/c1-12(2)9-13(3)19-15-10-18(22)16(11-17(15)21)20-14-7-5-4-6-8-14/h4-8,10-13,19-20H,9H2,1-3H3
Instrument: Exploris 240 Orbitrap Thermo Scientific
Instrument type: LC-ESI-QFT
Ms type: MS2
Ion mode: POSITIVE
Ionization: ESI
Fragmentation mode: HCD
Collision energy: 45 % (nominal)
Resolution: 17500
Column name: XBridge C18 3.5um, 2.1x50mm, Waters
Retention time: 11.329 min
Base peak: 299.175
Precursor m/z: 299.1754
Precursor type: [M+H]+
m/z	relative intensity	assigned
57.0699	40	C4H9+
58.0652	30	C3H8N+
84.0808	15	C5H10N+
85.1011	28	C6H13+
94.0651	45	C6H8N+
100.112	127	C6H14N+
150.0545	19	C8H8NO2+
170.0599	25	C11H8NO+
172.0755	28	C11H10NO+
187.0865	577	C11H11N2O+
198.0548	24	C12H8NO2+
200.0706	119	C12H10NO2+
201.078	45	C12H11NO2+
206.1172	15	C12H16NO2+
215.0813	731	C12H11N2O2+
216.0884	56	C12H12N2O2+
241.0971	488	C14H13N2O2+
243.1127	133	C14H15N2O2+
256.1206	442	C15H16N2O2+
257.1283	61	C15H17N2O2+
299.1754	999	C18H23N2O2+
