Mass spectrum: UV9; LC-ESI-QFT; MS2; CE: 45%; R=17500; [M+H]+
Name: UV9
Name: 2-(benzotriazol-2-yl)-4-methyl-6-prop-2-enylphenol
Formula: C16H15N3O
Exact mass: 265.1215121
SMILES: CC1=CC(=C(C(=C1)N2N=C3C=CC=CC3=N2)O)CC=C
InChI: InChI=1S/C16H15N3O/c1-3-6-12-9-11(2)10-15(16(12)20)19-17-13-7-4-5-8-14(13)18-19/h3-5,7-10,20H,1,6H2,2H3
Instrument: Exploris 240 Orbitrap Thermo Scientific
Instrument type: LC-ESI-QFT
Ms type: MS2
Ion mode: POSITIVE
Ionization: ESI
Fragmentation mode: HCD
Collision energy: 45 % (nominal)
Resolution: 17500
Column name: XBridge C18 3.5um, 2.1x50mm, Waters
Retention time: 16.910 min
Base peak: 266.1289
Precursor m/z: 266.1288
Precursor type: [M+H]+
m/z	relative intensity	assigned
65.0387	13	C5H5+
91.0542	132	C7H7+
92.0495	142	C6H6N+
115.0538	12	C9H7+
117.0697	88	C9H9+
119.0855	999	C9H11+
120.0556	143	C6H6N3+
129.0701	68	C10H9+
132.0573	8	C9H8O+
133.0647	6	C9H9O+
145.0652	26	C10H9O+
147.0805	336	C10H11O+
160.076	49	C10H10NO+
161.0835	41	C10H11NO+
197.0831	14	C13H11NO+
225.0901	38	C13H11N3O+
235.0861	10	C15H11N2O+
238.0976	338	C14H12N3O+
249.1026	15	C16H13N2O+
266.1291	370	C16H16N3O+
