Mass spectrum: Aureusidin; LC-ESI-QFT; MS2; CE: 30%; R=17500; [M-H]-
Name: Aureusidin
Name: 2-[(3,4-Dihydroxyphenyl)methylidene]-4,6-dihydroxy-3-benzofuranone
Name: 2-[(3,4-dihydroxyphenyl)methylidene]-4,6-dihydroxy-1-benzofuran-3-one
Formula: C15H10O6
Exact mass: 286.04773804
SMILES: C1=CC(=C(C=C1C=C2C(=O)C3=C(C=C(C=C3O2)O)O)O)O
InChI: InChI=1S/C15H10O6/c16-8-5-11(19)14-12(6-8)21-13(15(14)20)4-7-1-2-9(17)10(18)3-7/h1-6,16-19H
Instrument: Exploris 240 Orbitrap Thermo Scientific
Instrument type: LC-ESI-QFT
Ms type: MS2
Ion mode: NEGATIVE
Ionization: ESI
Fragmentation mode: HCD
Collision energy: 30 % (nominal)
Resolution: 17500
Column name: XBridge C18 3.5um, 2.1x50mm, Waters
Retention time: 5.259 min
Base peak: 285.0403
Precursor m/z: 285.0405
Precursor type: [M-H]-
m/z	relative intensity	assigned
151.004	3	C7H3O4-
175.0399	2	C10H7O3-
199.0406	3	C12H7O3-
217.0505	2	C12H9O4-
241.0507	3	C14H9O4-
257.0459	3	C14H9O5-
285.0404	999	C15H9O6-
