Mass spectrum: Cis-Dihydroanatoxin-A; LC-ESI-QFT; MS2; CE: 120%; R=17500; [M+H]+
Name: Cis-Dihydroanatoxin-A
Name: 1-[(1R,2S,6R)-9-azabicyclo[4.2.1]nonan-2-yl]ethanone
Formula: C10H17NO
Exact mass: 167.1310142
SMILES: CC(=O)[C@H]1CCC[C@@H]2CC[C@H]1N2
InChI: InChI=1S/C10H17NO/c1-7(12)9-4-2-3-8-5-6-10(9)11-8/h8-11H,2-6H2,1H3/t8-,9-,10-/m1/s1
Instrument: Exploris 240 Orbitrap Thermo Scientific
Instrument type: LC-ESI-QFT
Ms type: MS2
Ion mode: POSITIVE
Ionization: ESI
Fragmentation mode: HCD
Collision energy: 120 % (nominal)
Resolution: 17500
Column name: XBridge C18 3.5um, 2.1x50mm, Waters
Retention time: 1.752 min
Base peak: 168.1382
Precursor m/z: 168.1383
Precursor type: [M+H]+
m/z	relative intensity	assigned
41.0385	43	C3H5+
43.0178	999	C2H3O+
44.0495	34	C2H6N+
53.0386	34	C4H5+
55.0543	72	C4H7+
56.0495	615	C3H6N+
65.0385	77	C5H5+
67.0542	513	C5H7+
70.0653	27	C4H8N+
71.0492	80	C4H7O+
77.0386	83	C6H5+
79.0541	83	C6H7+
81.0699	57	C6H9+
91.0542	166	C7H7+
93.0699	47	C7H9+
95.0493	42	C6H7O+
105.0702	39	C8H9+
