Mass spectrum: AO4703; LC-ESI-QFT; MS2; CE: 45%; R=17500; [M+H]+
Name: AO4703
Name: 2,6-ditert-butyl-4-[(dimethylamino)methyl]phenol
Formula: C17H29NO
Exact mass: 263.2249145
SMILES: CC(C)(C)C1=CC(=CC(=C1O)C(C)(C)C)CN(C)C
InChI: InChI=1S/C17H29NO/c1-16(2,3)13-9-12(11-18(7)8)10-14(15(13)19)17(4,5)6/h9-10,19H,11H2,1-8H3
Instrument: Exploris 240 Orbitrap Thermo Scientific
Instrument type: LC-ESI-QFT
Ms type: MS2
Ion mode: POSITIVE
Ionization: ESI
Fragmentation mode: HCD
Collision energy: 45 % (nominal)
Resolution: 17500
Column name: XBridge C18 3.5um, 2.1x50mm, Waters
Retention time: 7.272 min
Base peak: 264.232
Precursor m/z: 264.2322
Precursor type: [M+H]+
m/z	relative intensity	assigned
203.1428	27	C14H19O+
219.1744	999	C15H23O+
