Mass spectrum: Kaempferol; LC-ESI-QFT; MS2; CE: 60%; R=17500; [M-H]-
Name: Kaempferol
Name: 3,5,7-trihydroxy-2-(4-hydroxyphenyl)chromen-4-one
Formula: C15H10O6
Exact mass: 286.04773804
SMILES: C1=CC(=CC=C1C2=C(C(=O)C3=C(C=C(C=C3O2)O)O)O)O
InChI: InChI=1S/C15H10O6/c16-8-3-1-7(2-4-8)15-14(20)13(19)12-10(18)5-9(17)6-11(12)21-15/h1-6,16-18,20H
Instrument: Exploris 240 Orbitrap Thermo Scientific
Instrument type: LC-ESI-QFT
Ms type: MS2
Ion mode: NEGATIVE
Ionization: ESI
Fragmentation mode: HCD
Collision energy: 60 % (nominal)
Resolution: 17500
Column name: XBridge C18 3.5um, 2.1x50mm, Waters
Retention time: 6.967 min
Base peak: 285.0403
Precursor m/z: 285.0405
Precursor type: [M-H]-
m/z	relative intensity	assigned
63.024	32	C5H3-
65.0031	26	C4HO-
83.0138	43	C4H3O2-
93.0346	135	C6H5O-
95.014	8	C5H3O2-
105.0343	13	C7H5O-
107.0139	71	C6H3O2-
108.0212	35	C6H4O2-
109.0294	60	C6H5O2-
117.0346	29	C8H5O-
121.0298	19	C7H5O2-
123.0454	11	C7H7O2-
130.0421	12	C9H6O-
131.0503	19	C9H7O-
133.0291	25	C8H5O2-
135.0087	45	C7H3O3-
136.0165	23	C7H4O3-
137.0242	42	C7H5O3-
143.0502	73	C10H7O-
145.0299	42	C9H5O2-
151.0037	47	C7H3O4-
154.0424	40	C11H6O-
155.05	41	C11H7O-
156.058	17	C11H8O-
157.0656	52	C11H9O-
158.0374	10	C10H6O2-
159.045	90	C10H7O2-
161.0243	27	C9H5O3-
163.0031	41	C8H3O4-
164.0116	30	C8H4O4-
165.0195	15	C8H5O4-
168.0581	23	C12H8O-
169.066	56	C12H9O-
171.0451	78	C11H7O2-
173.025	35	C10H5O3-
174.0323	8	C10H6O3-
183.0451	17	C12H7O2-
184.0532	18	C12H8O2-
185.0608	161	C12H9O2-
187.0401	110	C11H7O3-
189.0558	14	C11H9O3-
195.0451	21	C13H7O2-
198.0323	19	C12H6O3-
199.041	20	C12H7O3-
201.055	44	C12H9O3-
211.0397	66	C13H7O3-
213.0555	35	C13H9O3-
214.0263	49	C12H6O4-
215.035	48	C12H7O4-
227.0354	45	C13H7O4-
229.0508	114	C13H9O4-
239.0347	103	C14H7O4-
241.0515	17	C14H9O4-
243.0297	34	C13H7O5-
255.0298	47	C14H7O5-
257.045	28	C14H9O5-
268.0381	27	C15H8O5-
284.0329	16	C15H8O6-
285.0404	999	C15H9O6-
