Mass spectrum: Silibinin; LC-ESI-QFT; MS2; CE: 90%; R=17500; [M+H]+
Name: Silibinin
Name: Silymarin
Name: 3,5,7-trihydroxy-2-[3-(4-hydroxy-3-methoxyphenyl)-2-(hydroxymethyl)-2,3-dihydro-1,4-benzodioxin-6-yl]-2,3-dihydrochromen-4-one
Formula: C25H22O10
Exact mass: 482.1212969
SMILES: COC1=C(C=CC(=C1)C2C(OC3=C(O2)C=C(C=C3)C4C(C(=O)C5=C(C=C(C=C5O4)O)O)O)CO)O
InChI: InChI=1S/C25H22O10/c1-32-17-6-11(2-4-14(17)28)24-20(10-26)33-16-5-3-12(7-18(16)34-24)25-23(31)22(30)21-15(29)8-13(27)9-19(21)35-25/h2-9,20,23-29,31H,10H2,1H3
Instrument: Exploris 240 Orbitrap Thermo Scientific
Instrument type: LC-ESI-QFT
Ms type: MS2
Ion mode: POSITIVE
Ionization: ESI
Fragmentation mode: HCD
Collision energy: 90 % (nominal)
Resolution: 17500
Column name: XBridge C18 3.5um, 2.1x50mm, Waters
Retention time: 6.153 min
Base peak: 483.1283
Precursor m/z: 483.1286
Precursor type: [M+H]+
m/z	relative intensity	assigned
53.0387	93	C4H5+
55.0179	91	C3H3O+
65.0386	976	C5H5+
67.0179	203	C4H3O+
67.0542	35	C5H7+
68.9971	521	C3HO2+
69.0334	271	C4H5O+
77.0385	289	C6H5+
78.0464	65	C6H6+
79.0178	56	C5H3O+
79.0543	133	C6H7+
81.0335	94	C5H5O+
83.0128	75	C4H3O2+
89.0386	319	C7H5+
91.0542	937	C7H7+
93.0334	149	C6H5O+
94.0412	185	C6H6O+
95.0492	124	C6H7O+
97.0284	94	C5H5O2+
102.0464	503	C8H6+
103.0542	646	C8H7+
105.0335	248	C7H5O+
105.0699	62	C8H9+
106.0413	48	C7H6O+
107.0492	292	C7H7O+
109.0284	137	C6H5O2+
111.0441	227	C6H7O2+
115.0542	220	C9H7+
117.0337	95	C8H5O+
117.0699	75	C9H9+
118.0411	136	C8H6O+
119.049	427	C8H7O+
121.0285	743	C7H5O2+
121.0648	71	C8H9O+
122.0362	227	C7H6O2+
123.0442	85	C7H7O2+
124.0522	74	C7H8O2+
127.0544	87	C10H7+
128.0617	110	C10H8+
129.0703	53	C10H9+
130.0409	157	C9H6O+
131.0491	331	C9H7O+
133.0285	242	C8H5O2+
134.0362	86	C8H6O2+
135.0441	304	C8H7O2+
137.0238	37	C7H5O3+
137.0596	402	C8H9O2+
139.0391	107	C7H7O3+
139.0537	52	C11H7+
141.07	69	C11H9+
145.0648	75	C10H9O+
146.036	209	C9H6O2+
147.044	604	C9H7O2+
149.0235	295	C8H5O3+
149.0596	198	C9H9O2+
150.0673	130	C9H10O2+
152.0618	110	C12H8+
153.0182	999	C7H5O4+
153.0693	52	C12H9+
157.0649	84	C11H9O+
159.0441	56	C10H7O2+
161.0597	105	C10H9O2+
162.0677	44	C10H10O2+
169.065	51	C12H9O+
171.0442	49	C11H7O2+
173.0593	104	C11H9O2+
176.0621	39	C14H8+
177.0699	36	C14H9+
181.0646	71	C13H9O+
184.0522	44	C12H8O2+
185.0594	53	C12H9O2+
195.0291	66	C9H7O5+
197.0606	68	C13H9O2+
201.0538	34	C12H9O3+
213.0543	161	C13H9O3+
229.0502	73	C13H9O4+
