Mass spectrum: Curcumin; LC-ESI-QFT; MS2; CE: 75%; R=17500; [M+H]+
Name: Curcumin
Name: 1,7-Bis(4-hydroxy-3-methoxyphenyl)-1,6-heptadiene-3,5-dione
Name: 1,7-bis(4-hydroxy-3-methoxyphenyl)hepta-1,6-diene-3,5-dione
Formula: C21H20O6
Exact mass: 368.1259884
SMILES: COC1=C(C=CC(=C1)C=CC(=O)CC(=O)C=CC2=CC(=C(C=C2)O)OC)O
InChI: InChI=1S/C21H20O6/c1-26-20-11-14(5-9-18(20)24)3-7-16(22)13-17(23)8-4-15-6-10-19(25)21(12-15)27-2/h3-12,24-25H,13H2,1-2H3
Instrument: Exploris 240 Orbitrap Thermo Scientific
Instrument type: LC-ESI-QFT
Ms type: MS2
Ion mode: POSITIVE
Ionization: ESI
Fragmentation mode: HCD
Collision energy: 75 % (nominal)
Resolution: 17500
Column name: XBridge C18 3.5um, 2.1x50mm, Waters
Retention time: 9.566 min
Base peak: 369.1332
Precursor m/z: 369.1333
Precursor type: [M+H]+
m/z	relative intensity	assigned
68.9972	48	C3HO2+
77.0384	11	C6H5+
78.0465	12	C6H6+
89.0386	372	C7H5+
91.0544	44	C7H7+
103.0543	25	C8H7+
105.07	13	C8H9+
106.0415	38	C7H6O+
115.054	15	C9H7+
117.0335	999	C8H5O+
119.0492	25	C8H7O+
122.0366	19	C7H6O2+
131.0497	16	C9H7O+
134.0364	95	C8H6O2+
135.0441	15	C8H7O2+
136.0519	85	C8H8O2+
137.0598	61	C8H9O2+
145.0284	784	C9H5O2+
146.0362	99	C9H6O2+
149.0598	289	C9H9O2+
161.0596	41	C10H9O2+
162.0311	17	C9H6O3+
165.0699	52	C13H9+
177.0546	127	C10H9O3+
181.0645	10	C13H9O+
182.0724	21	C13H10O+
193.0652	37	C14H9O+
210.0678	34	C14H10O2+
221.0593	21	C15H9O2+
