Mass spectrum: Idebenone; LC-ESI-QFT; MS2; CE: 90%; R=17500; [M+H]+
Name: Idebenone
Name: 2-(10-hydroxydecyl)-5,6-dimethoxy-3-methylcyclohexa-2,5-diene-1,4-dione
Formula: C19H30O5
Exact mass: 338.2093241
SMILES: CC1=C(C(=O)C(=C(C1=O)OC)OC)CCCCCCCCCCO
InChI: InChI=1S/C19H30O5/c1-14-15(12-10-8-6-4-5-7-9-11-13-20)17(22)19(24-3)18(23-2)16(14)21/h20H,4-13H2,1-3H3
Instrument: Exploris 240 Orbitrap Thermo Scientific
Instrument type: LC-ESI-QFT
Ms type: MS2
Ion mode: POSITIVE
Ionization: ESI
Fragmentation mode: HCD
Collision energy: 90 % (nominal)
Resolution: 17500
Column name: XBridge C18 3.5um, 2.1x50mm, Waters
Retention time: 12.384 min
Base peak: 339.2163
Precursor m/z: 339.2166
Precursor type: [M+H]+
m/z	relative intensity	assigned
53.0386	211	C4H5+
55.0542	375	C4H7+
65.0386	124	C5H5+
66.0465	121	C5H6+
67.0179	54	C4H3O+
67.0542	285	C5H7+
68.9971	69	C3HO2+
69.0337	61	C4H5O+
69.0699	74	C5H9+
77.0384	171	C6H5+
78.0464	68	C6H6+
79.0542	592	C6H7+
80.0621	305	C6H8+
81.0333	59	C5H5O+
81.0699	220	C6H9+
82.0413	70	C5H6O+
83.0128	111	C4H3O2+
83.0492	446	C5H7O+
91.0542	564	C7H7+
93.0334	58	C6H5O+
93.0698	129	C7H9+
94.0415	69	C6H6O+
95.0492	126	C6H7O+
95.0858	68	C7H11+
96.0571	39	C6H8O+
103.0541	92	C8H7+
105.0337	66	C7H5O+
105.07	139	C8H9+
107.0491	231	C7H7O+
108.0566	204	C7H8O+
109.0647	147	C7H9O+
111.044	999	C6H7O2+
115.0543	102	C9H7+
117.0701	84	C9H9+
119.0491	73	C8H7O+
120.0575	95	C8H8O+
121.0645	158	C8H9O+
123.0442	80	C7H7O2+
123.0803	267	C8H11O+
124.052	93	C7H8O2+
125.0599	72	C7H9O2+
129.0703	49	C10H9+
135.0441	97	C8H7O2+
136.0518	494	C8H8O2+
137.0601	87	C8H9O2+
139.0391	345	C7H7O3+
139.0759	65	C8H11O2+
140.0472	65	C7H8O3+
147.0439	116	C9H7O2+
151.0755	117	C9H11O2+
152.0473	47	C8H8O3+
153.055	102	C8H9O3+
154.0624	758	C8H10O3+
164.0474	99	C9H8O3+
165.0543	62	C9H9O3+
167.034	110	C8H7O4+
175.0391	80	C10H7O3+
