Mass spectrum: Tinuvin144; LC-ESI-QFT; MS2; CE: 30%; R=17500; [M+H]+
Name: Tinuvin144
Name: bis(1,2,2,6,6-pentamethylpiperidin-4-yl) 2-butyl-2-[(3,5-ditert-butyl-4-hydroxyphenyl)methyl]propanedioate
Formula: C42H72N2O5
Exact mass: 684.5441234
SMILES: CCCCC(CC1=CC(=C(C(=C1)C(C)(C)C)O)C(C)(C)C)(C(=O)OC2CC(N(C(C2)(C)C)C)(C)C)C(=O)OC3CC(N(C(C3)(C)C)C)(C)C
InChI: InChI=1S/C42H72N2O5/c1-18-19-20-42(34(46)48-29-24-38(8,9)43(16)39(10,11)25-29,35(47)49-30-26-40(12,13)44(17)41(14,15)27-30)23-28-21-31(36(2,3)4)33(45)32(22-28)37(5,6)7/h21-22,29-30,45H,18-20,23-27H2,1-17H3
Instrument: Exploris 240 Orbitrap Thermo Scientific
Instrument type: LC-ESI-QFT
Ms type: MS2
Ion mode: POSITIVE
Ionization: ESI
Fragmentation mode: HCD
Collision energy: 30 % (nominal)
Resolution: 17500
Column name: XBridge C18 3.5um, 2.1x50mm, Waters
Retention time: 10.968 min
Base peak: 343.279
Precursor m/z: 685.5514
Precursor type: [M+H]+
m/z	relative intensity	assigned
72.0807	144	C4H10N+
98.0963	47	C6H12N+
123.1166	1	C9H15+
154.1589	182	C10H20N+
171.3945	2	C5H51N2O2+
532.3995	45	C32H54NO5+
685.5511	999	C42H73N2O5+
