Mass spectrum: AO626; LC-ESI-QFT; MS2; CE: 60%; R=17500; [M+H]+
Name: AO626
Name: 3,9-Bis(2,4-di-tert-butylphenoxy)-2,4,8,10-tetraoxa-3,9-diphosphaspiro[5.5]undecane
Name: 3,9-bis(2,4-ditert-butylphenoxy)-2,4,8,10-tetraoxa-3,9-diphosphaspiro[5.5]undecane
Formula: C33H50O6P2
Exact mass: 604.3083
SMILES: CC(C)(C)C1=CC(=C(C=C1)OP2OCC3(CO2)COP(OC3)OC4=C(C=C(C=C4)C(C)(C)C)C(C)(C)C)C(C)(C)C
InChI: InChI=1S/C33H50O6P2/c1-29(2,3)23-13-15-27(25(17-23)31(7,8)9)38-40-34-19-33(20-35-40)21-36-41(37-22-33)39-28-16-14-24(30(4,5)6)18-26(28)32(10,11)12/h13-18H,19-22H2,1-12H3
Instrument: Exploris 240 Orbitrap Thermo Scientific
Instrument type: LC-ESI-QFT
Ms type: MS2
Ion mode: POSITIVE
Ionization: ESI
Fragmentation mode: HCD
Collision energy: 60 % (nominal)
Resolution: 17500
Column name: XBridge C18 3.5um, 2.1x50mm, Waters
Retention time: 21.797 min
Base peak: 163.9764
Precursor m/z: 605.3155
Precursor type: [M+H]+
m/z	relative intensity	assigned
67.0542	63	C5H7+
83.049	196	C5H7O+
91.0542	198	C7H7+
95.0492	68	C6H7O+
105.0699	162	C8H9+
117.0704	50	C9H9+
119.0853	156	C9H11+
128.0618	67	C10H8+
129.0701	65	C10H9+
131.0857	113	C10H11+
132.0936	86	C10H12+
141.0104	79	C6H6O2P+
141.0697	279	C11H9+
142.0774	83	C11H10+
143.0857	214	C11H11+
147.0205	465	C5H8O3P+
147.0807	66	C10H11O+
147.1167	843	C11H15+
159.0205	116	C6H8O3P+
159.0805	363	C11H11O+
161.0964	55	C11H13O+
165.0309	121	C5H10O4P+
175.0312	57	C10H8OP+
187.0306	70	C11H8OP+
187.1118	50	C13H15O+
197.1327	84	C15H17+
205.0412	159	C11H10O2P+
211.0515	68	C10H12O3P+
215.1431	177	C15H19O+
223.0519	999	C11H12O3P+
241.0623	88	C11H14O4P+
243.175	61	C17H23O+
271.2061	88	C19H27O+
279.1145	276	C15H20O3P+
