Mass spectrum: N-(1-Methylheptyl)-N'-phenyl-p-phenylenediamine; LC-ESI-QFT; MS2; CE: 75%; R=17500; [M+H]+
Name: N-(1-Methylheptyl)-N'-phenyl-p-phenylenediamine
Name: 4-N-octan-2-yl-1-N-phenylbenzene-1,4-diamine
Formula: C20H28N2
Exact mass: 296.2252489
SMILES: CCCCCCC(C)NC1=CC=C(C=C1)NC2=CC=CC=C2
InChI: InChI=1S/C20H28N2/c1-3-4-5-7-10-17(2)21-19-13-15-20(16-14-19)22-18-11-8-6-9-12-18/h6,8-9,11-17,21-22H,3-5,7,10H2,1-2H3
Instrument: Exploris 240 Orbitrap Thermo Scientific
Instrument type: LC-ESI-QFT
Ms type: MS2
Ion mode: POSITIVE
Ionization: ESI
Fragmentation mode: HCD
Collision energy: 75 % (nominal)
Resolution: 17500
Column name: XBridge C18 3.5um, 2.1x50mm, Waters
Retention time: 10.936 min
Base peak: 297.2322
Precursor m/z: 297.2325
Precursor type: [M+H]+
m/z	relative intensity	assigned
57.0697	22	C4H9+
71.0853	7	C5H11+
80.0494	4	C5H6N+
81.0571	10	C5H7N+
92.0495	26	C6H6N+
93.0572	219	C6H7N+
106.0523	5	C6H6N2+
107.0602	85	C6H7N2+
108.0681	42	C6H8N2+
118.0525	7	C7H6N2+
166.0647	7	C12H8N+
167.0727	27	C12H9N+
168.0808	48	C12H10N+
183.0915	75	C12H11N2+
184.0993	999	C12H12N2+
185.1071	29	C12H13N2+
