Mass spectrum: Bis(4-Octylphenyl)Amine; LC-ESI-QFT; MS2; CE: 75%; R=17500; [M+H]+
Name: Bis(4-Octylphenyl)Amine
Name: 4-octyl-N-(4-octylphenyl)aniline
Formula: C28H43N
Exact mass: 393.3395504
SMILES: CCCCCCCCC1=CC=C(C=C1)NC2=CC=C(C=C2)CCCCCCCC
InChI: InChI=1S/C28H43N/c1-3-5-7-9-11-13-15-25-17-21-27(22-18-25)29-28-23-19-26(20-24-28)16-14-12-10-8-6-4-2/h17-24,29H,3-16H2,1-2H3
Instrument: Exploris 240 Orbitrap Thermo Scientific
Instrument type: LC-ESI-QFT
Ms type: MS2
Ion mode: POSITIVE
Ionization: ESI
Fragmentation mode: HCD
Collision energy: 75 % (nominal)
Resolution: 17500
Column name: XBridge C18 3.5um, 2.1x50mm, Waters
Retention time: 22.369 min
Base peak: 394.3466
Precursor m/z: 394.3468
Precursor type: [M+H]+
m/z	relative intensity	assigned
57.0699	27	C4H9+
65.0388	13	C5H5+
79.0542	8	C6H7+
91.0541	13	C7H7+
92.0495	73	C6H6N+
106.0652	999	C7H8N+
120.0807	14	C8H10N+
169.0888	9	C12H11N+
170.0965	16	C12H12N+
182.0966	207	C13H12N+
183.1038	14	C13H13N+
195.1038	9	C14H13N+
294.223	10	C21H28N+
