Mass spectrum: 3`,4,4`,5,7-Pentahydroxyflavan; LC-ESI-QFT; MS2; CE: 30%; R=17500; [M-H]-
Name: 3`,4,4`,5,7-Pentahydroxyflavan
Name: 2-(3,4-dihydroxyphenyl)-3,4-dihydro-2H-chromene-4,5,7-triol
Formula: C15H14O6
Exact mass: 290.079038168
SMILES: C1C(C2=C(C=C(C=C2OC1C3=CC(=C(C=C3)O)O)O)O)O
InChI: InChI=1S/C15H14O6/c16-8-4-11(19)15-12(20)6-13(21-14(15)5-8)7-1-2-9(17)10(18)3-7/h1-5,12-13,16-20H,6H2
Instrument: Exploris 240 Orbitrap Thermo Scientific
Instrument type: LC-ESI-QFT
Ms type: MS2
Ion mode: NEGATIVE
Ionization: ESI
Fragmentation mode: HCD
Collision energy: 30 % (nominal)
Resolution: 17500
Column name: XBridge C18 3.5um, 2.1x50mm, Waters
Retention time: 2.902 min
Base peak: 289.0717
Precursor m/z: 289.0718
Precursor type: [M-H]-
m/z	relative intensity	assigned
81.0343	8	C5H5O-
83.0139	7	C4H3O2-
95.0503	8	C6H7O-
97.0295	31	C5H5O2-
109.0295	193	C6H5O2-
121.0298	11	C7H5O2-
123.0453	59	C7H7O2-
125.0244	203	C6H5O3-
135.0449	12	C8H7O2-
137.0245	104	C7H5O3-
139.0399	25	C7H7O3-
149.0246	35	C8H5O3-
151.0401	87	C8H7O3-
159.0458	8	C10H7O2-
161.0249	11	C9H5O3-
161.061	46	C10H9O2-
162.0323	16	C9H6O3-
164.0113	21	C8H4O4-
165.019	65	C8H5O4-
166.0276	6	C8H6O4-
167.0354	34	C8H7O4-
175.0763	12	C11H11O2-
179.035	160	C9H7O4-
187.0401	48	C11H7O3-
188.048	47	C11H8O3-
202.0641	32	C12H10O3-
203.0714	208	C12H11O3-
205.0507	186	C11H9O4-
217.087	18	C13H13O3-
221.0814	44	C12H13O4-
227.0714	31	C14H11O3-
245.082	627	C14H13O4-
247.0618	28	C13H11O5-
271.0602	20	C15H11O5-
289.0719	999	C15H13O6-
