Mass spectrum: Hexadecyl gallate; LC-ESI-QFT; MS2; CE: 120%; R=17500; [M-H]-
Name: Hexadecyl gallate
Name: Cetyl gallate
Name: hexadecyl 3,4,5-trihydroxybenzoate
Formula: C23H38O5
Exact mass: 394.271924316
SMILES: CCCCCCCCCCCCCCCCOC(=O)C1=CC(=C(C(=C1)O)O)O
InChI: InChI=1S/C23H38O5/c1-2-3-4-5-6-7-8-9-10-11-12-13-14-15-16-28-23(27)19-17-20(24)22(26)21(25)18-19/h17-18,24-26H,2-16H2,1H3
Instrument: Exploris 240 Orbitrap Thermo Scientific
Instrument type: LC-ESI-QFT
Ms type: MS2
Ion mode: NEGATIVE
Ionization: ESI
Fragmentation mode: HCD
Collision energy: 120 % (nominal)
Resolution: 17500
Column name: XBridge C18 3.5um, 2.1x50mm, Waters
Retention time: 17.946 min
Base peak: 393.2644
Precursor m/z: 393.2646
Precursor type: [M-H]-
m/z	relative intensity	assigned
65.0032	38	C4HO-
67.019	38	C4H3O-
69.0348	33	C4H5O-
78.0111	999	C5H2O-
79.0189	83	C5H3O-
81.0345	23	C5H5O-
95.0136	63	C5H3O2-
106.006	46	C6H2O2-
109.0299	22	C6H5O2-
111.0091	21	C5H3O3-
123.009	97	C6H3O3-
124.0166	792	C6H4O3-
125.0244	121	C6H5O3-
139.004	24	C6H3O4-
140.0116	26	C6H4O4-
