Mass spectrum: DtAP; LC-ESI-QFT; MS2; CE: 45%; R=17500; [M-H]-
Name: DtAP
Name: 2,4-Di-tert-pentylphenol
Name: 2,4-bis(2-methylbutan-2-yl)phenol
Formula: C16H26O
Exact mass: 234.1984
SMILES: CCC(C)(C)C1=CC(=C(C=C1)O)C(C)(C)CC
InChI: InChI=1S/C16H26O/c1-7-15(3,4)12-9-10-14(17)13(11-12)16(5,6)8-2/h9-11,17H,7-8H2,1-6H3
Instrument: Exploris 240 Orbitrap Thermo Scientific
Instrument type: LC-ESI-QFT
Ms type: MS2
Ion mode: NEGATIVE
Ionization: ESI
Fragmentation mode: HCD
Collision energy: 45 % (nominal)
Resolution: 17500
Column name: XBridge C18 3.5um, 2.1x50mm, Waters
Retention time: 15.124 min
Base peak: 325.1843
Precursor m/z: 233.1911
Precursor type: [M-H]-
m/z	relative intensity	assigned
233.191	999	C16H25O-
