Mass spectrum: Taxifolin; LC-ESI-QFT; MS2; CE: 180%; R=17500; [M+H]+
Name: Taxifolin
Name: 3,5,7,3',4'-Pentahydroxyflavanone
Name: 2-(3,4-dihydroxyphenyl)-3,5,7-trihydroxy-2,3-dihydrochromen-4-one
Formula: C15H12O7
Exact mass: 304.0583027
SMILES: C1=CC(=C(C=C1C2C(C(=O)C3=C(C=C(C=C3O2)O)O)O)O)O
InChI: InChI=1S/C15H12O7/c16-7-4-10(19)12-11(5-7)22-15(14(21)13(12)20)6-1-2-8(17)9(18)3-6/h1-5,14-19,21H
Instrument: Exploris 240 Orbitrap Thermo Scientific
Instrument type: LC-ESI-QFT
Ms type: MS2
Ion mode: POSITIVE
Ionization: ESI
Fragmentation mode: HCD
Collision energy: 180 % (nominal)
Resolution: 17500
Column name: XBridge C18 3.5um, 2.1x50mm, Waters
Retention time: 4.381 min
Base peak: 305.0653
Precursor m/z: 305.0656
Precursor type: [M+H]+
m/z	relative intensity	assigned
50.0151	219	C4H2+
51.0229	999	C4H3+
53.0024	19	C3HO+
53.0386	57	C4H5+
55.0178	60	C3H3O+
63.0229	275	C5H3+
65.0386	272	C5H5+
68.9971	447	C3HO2+
75.023	43	C6H3+
77.0385	257	C6H5+
78.0465	28	C6H6+
81.0335	22	C5H5O+
89.0384	171	C7H5+
91.0541	28	C7H7+
95.049	73	C6H7O+
102.0463	70	C8H6+
103.0547	19	C8H7+
105.0338	23	C7H5O+
115.0545	90	C9H7+
127.054	21	C10H7+
128.0621	101	C10H8+
139.0544	83	C11H7+
