Mass spectrum: 2,6-Di-Tert-Butyl-4-Nitrophenol; LC-ESI-QFT; MS2; CE: 45%; R=17500; [M+H]+
Name: 2,6-Di-Tert-Butyl-4-Nitrophenol
Name: 2,6-ditert-butyl-4-nitrophenol
Formula: C14H21NO3
Exact mass: 251.1521435
SMILES: CC(C)(C)C1=CC(=CC(=C1O)C(C)(C)C)[N+](=O)[O-]
InChI: InChI=1S/C14H21NO3/c1-13(2,3)10-7-9(15(17)18)8-11(12(10)16)14(4,5)6/h7-8,16H,1-6H3
Instrument: Exploris 240 Orbitrap Thermo Scientific
Instrument type: LC-ESI-QFT
Ms type: MS2
Ion mode: POSITIVE
Ionization: ESI
Fragmentation mode: HCD
Collision energy: 45 % (nominal)
Resolution: 17500
Column name: XBridge C18 3.5um, 2.1x50mm, Waters
Retention time: 13.507 min
Base peak: 252.1592
Precursor m/z: 252.1594
Precursor type: [M+H]+
m/z	relative intensity	assigned
57.0699	389	C4H9+
149.0959	87	C10H13O+
163.1119	79	C11H15O+
179.094	38	C10H13NO2+
191.1432	87	C13H19O+
196.0968	305	C10H14NO3+
207.1384	44	C13H19O2+
220.1327	37	C13H18NO2+
235.1567	999	C14H21NO2+
252.1595	913	C14H22NO3+
