Mass spectrum: 24DA; LC-ESI-QFT; MS2; CE: 30%; R=17500; [M-H]-
Name: 24DA
Name: 2,4-Dichlorophenoxyacetic acid
Name: 2-(2,4-dichlorophenoxy)acetic acid
Formula: C8H6Cl2O3
Exact mass: 219.9694
SMILES: C1=CC(=C(C=C1Cl)Cl)OCC(=O)O
InChI: InChI=1S/C8H6Cl2O3/c9-5-1-2-7(6(10)3-5)13-4-8(11)12/h1-3H,4H2,(H,11,12)
Instrument: Exploris 240 Orbitrap Thermo Scientific
Instrument type: LC-ESI-QFT
Ms type: MS2
Ion mode: NEGATIVE
Ionization: ESI
Fragmentation mode: HCD
Collision energy: 30 % (nominal)
Resolution: 17500
Column name: XBridge C18 3.5um, 2.1x50mm, Waters
Retention time: 7.466 min
Base peak: 218.9621
Precursor m/z: 218.9621
Precursor type: [M-H]-
m/z	relative intensity	assigned
160.9567	999	C6H3Cl2O-
