Mass spectrum: 2,4-Dihydroxybenzophenone; LC-ESI-QFT; MS2; CE: 75%; R=17500; [M+H]+
Name: 2,4-Dihydroxybenzophenone
Name: (2,4-dihydroxyphenyl)-phenylmethanone
Formula: C13H10O3
Exact mass: 214.0629942
SMILES: C1=CC=C(C=C1)C(=O)C2=C(C=C(C=C2)O)O
InChI: InChI=1S/C13H10O3/c14-10-6-7-11(12(15)8-10)13(16)9-4-2-1-3-5-9/h1-8,14-15H
Instrument: Exploris 240 Orbitrap Thermo Scientific
Instrument type: LC-ESI-QFT
Ms type: MS2
Ion mode: POSITIVE
Ionization: ESI
Fragmentation mode: HCD
Collision energy: 75 % (nominal)
Resolution: 17500
Column name: XBridge C18 3.5um, 2.1x50mm, Waters
Retention time: 8.138 min
Base peak: 215.07
Precursor m/z: 215.0703
Precursor type: [M+H]+
m/z	relative intensity	assigned
53.0385	31	C4H5+
68.9971	12	C3HO2+
77.0386	87	C6H5+
81.0334	164	C5H5O+
95.0491	27	C6H7O+
96.0203	4	C5H4O2+
105.0335	237	C7H5O+
109.0282	35	C6H5O2+
127.0389	9	C6H7O3+
137.0233	999	C7H5O3+
