Mass spectrum: DODPA; LC-ESI-QFT; MS2; CE: 120%; R=17500; [M+H]+
Name: DODPA
Name: Bis(4-(2,4,4-trimethylpentan-2-yl)phenyl)amine
Name: 4-(2,4,4-trimethylpentan-2-yl)-N-[4-(2,4,4-trimethylpentan-2-yl)phenyl]aniline
Formula: C28H43N
Exact mass: 393.3396
SMILES: CC(C)(C)CC(C)(C)C1=CC=C(C=C1)NC2=CC=C(C=C2)C(C)(C)CC(C)(C)C
InChI: InChI=1S/C28H43N/c1-25(2,3)19-27(7,8)21-11-15-23(16-12-21)29-24-17-13-22(14-18-24)28(9,10)20-26(4,5)6/h11-18,29H,19-20H2,1-10H3
Instrument: Exploris 240 Orbitrap Thermo Scientific
Instrument type: LC-ESI-QFT
Ms type: MS2
Ion mode: POSITIVE
Ionization: ESI
Fragmentation mode: HCD
Collision energy: 120 % (nominal)
Resolution: 17500
Column name: XBridge C18 3.5um, 2.1x50mm, Waters
Retention time: 19.660 min
Base peak: 394.3463
Precursor m/z: 394.3468
Precursor type: [M+H]+
m/z	relative intensity	assigned
93.0573	204	C6H7N+
94.0651	303	C6H8N+
106.0651	999	C7H8N+
118.0651	67	C8H8N+
119.0729	256	C8H9N+
134.0963	424	C9H12N+
202.0777	205	C16H10+
