Mass spectrum: DBDPA; LC-ESI-QFT; MS2; CE: 45%; R=17500; [M+H]+
Name: DBDPA
Name: Bis(4-tert-butylphenyl)amine
Name: 4-tert-butyl-N-(4-tert-butylphenyl)aniline
Formula: C20H27N
Exact mass: 281.214349864
SMILES: CC(C)(C)C1=CC=C(C=C1)NC2=CC=C(C=C2)C(C)(C)C
InChI: InChI=1S/C20H27N/c1-19(2,3)15-7-11-17(12-8-15)21-18-13-9-16(10-14-18)20(4,5)6/h7-14,21H,1-6H3
Instrument: Exploris 240 Orbitrap Thermo Scientific
Instrument type: LC-ESI-QFT
Ms type: MS2
Ion mode: POSITIVE
Ionization: ESI
Fragmentation mode: HCD
Collision energy: 45 % (nominal)
Resolution: 17500
Column name: XBridge C18 3.5um, 2.1x50mm, Waters
Retention time: 16.524 min
Base peak: 282.2213
Precursor m/z: 282.2216
Precursor type: [M+H]+
m/z	relative intensity	assigned
57.0698	7	C4H9+
134.0962	12	C9H12N+
170.0965	5	C12H12N+
226.1592	12	C16H20N+
282.2216	999	C20H28N+
