Mass spectrum: 4-Hydroxybenzoic Acid; LC-ESI-QFT; MS2; CE: 60%; R=17500; [M+H]+
Name: 4-Hydroxybenzoic Acid
Formula: C7H6O3
Exact mass: 138.0316941
SMILES: C1=CC(=CC=C1C(=O)O)O
InChI: InChI=1S/C7H6O3/c8-6-3-1-5(2-4-6)7(9)10/h1-4,8H,(H,9,10)
Instrument: Exploris 240 Orbitrap Thermo Scientific
Instrument type: LC-ESI-QFT
Ms type: MS2
Ion mode: POSITIVE
Ionization: ESI
Fragmentation mode: HCD
Collision energy: 60 % (nominal)
Resolution: 17500
Column name: XBridge C18 3.5um, 2.1x50mm, Waters
Retention time: 3.282 min
Base peak: 132.9582
Precursor m/z: 139.039
Precursor type: [M+H]+
m/z	relative intensity	assigned
53.0385	63	C4H5+
67.0542	31	C5H7+
77.0388	69	C6H5+
95.0491	999	C6H7O+
121.0284	657	C7H5O2+
139.0386	94	C7H7O3+
