Mass spectrum: 2`-Deoxyguanosine; LC-ESI-QFT; MS2; CE: 90%; R=17500; [M-H]-
Name: 2`-Deoxyguanosine
Name: CID 638
Name: 2-amino-9-[4-hydroxy-5-(hydroxymethyl)oxolan-2-yl]-3H-purin-6-one
Formula: C10H13N5O4
Exact mass: 267.096753896
SMILES: C1C(C(OC1N2C=NC3=C2N=C(NC3=O)N)CO)O
InChI: InChI=1S/C10H13N5O4/c11-10-13-8-7(9(18)14-10)12-3-15(8)6-1-4(17)5(2-16)19-6/h3-6,16-17H,1-2H2,(H3,11,13,14,18)
Instrument: Exploris 240 Orbitrap Thermo Scientific
Instrument type: LC-ESI-QFT
Ms type: MS2
Ion mode: NEGATIVE
Ionization: ESI
Fragmentation mode: HCD
Collision energy: 90 % (nominal)
Resolution: 17500
Column name: XBridge C18 3.5um, 2.1x50mm, Waters
Retention time: 1.683 min
Base peak: 266.0894
Precursor m/z: 266.0895
Precursor type: [M-H]-
m/z	relative intensity	assigned
59.0138	50	C2H3O2-
65.0145	32	C3HN2-
65.9986	32	C3NO-
66.0097	193	C2N3-
78.0096	49	C3N3-
80.0254	73	C3H2N3-
82.0409	38	C3H4N3-
90.0098	14	C4N3-
91.0298	8	C5H3N2-
92.0253	53	C4H2N3-
105.0209	14	C4HN4-
106.0284	91	C4H2N4-
106.0407	21	C5H4N3-
107.0362	134	C4H3N4-
108.0203	797	C4H2N3O-
126.031	72	C4H4N3O2-
133.0155	999	C5HN4O-
134.0359	56	C6H4N3O-
149.0341	17	C5H3N5O-
150.0421	207	C5H4N5O-
176.0584	25	C7H6N5O-
