Mass spectrum: Aureusidin; LC-ESI-QFT; MS2; CE: 75%; R=17500; [M+H]+
Name: Aureusidin
Name: 2-[(3,4-Dihydroxyphenyl)methylidene]-4,6-dihydroxy-3-benzofuranone
Name: 2-[(3,4-dihydroxyphenyl)methylidene]-4,6-dihydroxy-1-benzofuran-3-one
Formula: C15H10O6
Exact mass: 286.047738
SMILES: C1=CC(=C(C=C1C=C2C(=O)C3=C(C=C(C=C3O2)O)O)O)O
InChI: InChI=1S/C15H10O6/c16-8-5-11(19)14-12(6-8)21-13(15(14)20)4-7-1-2-9(17)10(18)3-7/h1-6,16-19H
Instrument: Exploris 240 Orbitrap Thermo Scientific
Instrument type: LC-ESI-QFT
Ms type: MS2
Ion mode: POSITIVE
Ionization: ESI
Fragmentation mode: HCD
Collision energy: 75 % (nominal)
Resolution: 17500
Column name: XBridge C18 3.5um, 2.1x50mm, Waters
Retention time: 5.270 min
Base peak: 287.0547
Precursor m/z: 287.055
Precursor type: [M+H]+
m/z	relative intensity	assigned
53.0385	23	C4H5+
55.0179	52	C3H3O+
65.0387	22	C5H5+
67.0178	73	C4H3O+
68.9971	258	C3HO2+
69.0336	51	C4H5O+
77.0385	73	C6H5+
79.0542	58	C6H7+
81.0336	40	C5H5O+
89.0384	218	C7H5+
91.0545	33	C7H7+
95.0129	30	C5H3O2+
95.0492	27	C6H7O+
97.0285	25	C5H5O2+
103.0538	21	C8H7+
105.0335	195	C7H5O+
105.07	23	C8H9+
107.049	120	C7H7O+
109.0282	30	C6H5O2+
111.0078	43	C5H3O3+
115.0542	57	C9H7+
117.0336	93	C8H5O+
117.0699	30	C9H9+
119.0494	26	C8H7O+
121.0282	104	C7H5O2+
123.0441	57	C7H7O2+
128.0623	45	C10H8+
129.0698	103	C10H9+
131.049	34	C9H7O+
135.0437	99	C8H7O2+
137.0235	48	C7H5O3+
139.0543	37	C11H7+
141.0702	43	C11H9+
143.049	35	C10H7O+
145.0644	28	C10H9O+
147.0445	74	C9H7O2+
149.0235	107	C8H5O3+
153.0182	999	C7H5O4+
157.0286	30	C10H5O2+
157.0648	138	C11H9O+
160.052	24	C10H8O2+
161.0236	96	C9H5O3+
161.0597	38	C10H9O2+
163.0397	74	C9H7O3+
165.0185	28	C8H5O4+
167.0495	22	C12H7O+
171.0438	76	C11H7O2+
175.0387	18	C10H7O3+
175.0756	31	C11H11O2+
179.0337	17	C9H7O4+
185.0596	151	C12H9O2+
189.0545	34	C11H9O3+
191.0342	52	C10H7O4+
199.0383	58	C12H7O3+
203.0707	42	C12H11O3+
213.0547	269	C13H9O3+
216.042	97	C12H8O4+
217.0494	65	C12H9O4+
227.0334	15	C13H7O4+
229.0506	38	C13H9O4+
231.0654	116	C13H11O4+
240.0424	41	C14H8O4+
241.0494	374	C14H9O4+
269.0452	48	C15H9O5+
