Mass spectrum: Aureusidin; LC-ESI-QFT; MS2; CE: 120%; R=17500; [M-H]-
Name: Aureusidin
Name: 2-[(3,4-Dihydroxyphenyl)methylidene]-4,6-dihydroxy-3-benzofuranone
Name: 2-[(3,4-dihydroxyphenyl)methylidene]-4,6-dihydroxy-1-benzofuran-3-one
Formula: C15H10O6
Exact mass: 286.04773804
SMILES: C1=CC(=C(C=C1C=C2C(=O)C3=C(C=C(C=C3O2)O)O)O)O
InChI: InChI=1S/C15H10O6/c16-8-5-11(19)14-12(6-8)21-13(15(14)20)4-7-1-2-9(17)10(18)3-7/h1-6,16-19H
Instrument: Exploris 240 Orbitrap Thermo Scientific
Instrument type: LC-ESI-QFT
Ms type: MS2
Ion mode: NEGATIVE
Ionization: ESI
Fragmentation mode: HCD
Collision energy: 120 % (nominal)
Resolution: 17500
Column name: XBridge C18 3.5um, 2.1x50mm, Waters
Retention time: 5.259 min
Base peak: 285.0403
Precursor m/z: 285.0405
Precursor type: [M-H]-
m/z	relative intensity	assigned
63.0239	321	C5H3-
65.0033	970	C4HO-
77.0397	95	C6H5-
79.0188	48	C5H3O-
83.0136	110	C4H3O2-
89.0031	58	C6HO-
89.0398	70	C7H5-
104.0267	190	C7H4O-
105.0348	102	C7H5O-
107.0139	75	C6H3O2-
115.0186	123	C8H3O-
117.0346	59	C8H5O-
132.0216	953	C8H4O2-
133.0294	999	C8H5O2-
183.0456	50	C12H7O2-
