Mass spectrum: Taxifolin; LC-ESI-QFT; MS2; CE: 150%; R=17500; [M-H]-
Name: Taxifolin
Name: 3,5,7,3`,4`-Pentahydroxyflavanone
Name: 2-(3,4-dihydroxyphenyl)-3,5,7-trihydroxy-2,3-dihydrochromen-4-one
Formula: C15H12O7
Exact mass: 304.058302724
SMILES: C1=CC(=C(C=C1C2C(C(=O)C3=C(C=C(C=C3O2)O)O)O)O)O
InChI: InChI=1S/C15H12O7/c16-7-4-10(19)12-11(5-7)22-15(14(21)13(12)20)6-1-2-8(17)9(18)3-6/h1-5,14-19,21H
Instrument: Exploris 240 Orbitrap Thermo Scientific
Instrument type: LC-ESI-QFT
Ms type: MS2
Ion mode: NEGATIVE
Ionization: ESI
Fragmentation mode: HCD
Collision energy: 150 % (nominal)
Resolution: 17500
Column name: XBridge C18 3.5um, 2.1x50mm, Waters
Retention time: 4.371 min
Base peak: 303.0509
Precursor m/z: 303.051
Precursor type: [M-H]-
m/z	relative intensity	assigned
57.0346	999	C3H5O-
63.0239	105	C5H3-
65.0033	581	C4HO-
67.0189	26	C4H3O-
68.9983	54	C3HO2-
83.014	74	C4H3O2-
93.0347	81	C6H5O-
