Mass spectrum: 6PPD-Quinone; LC-ESI-QFT; MS2; CE: 60%; R=17500; [M+H]+
Name: 6PPD-Quinone
Name: 2-anilino-5-(4-methylpentan-2-ylamino)cyclohexa-2,5-diene-1,4-dione
Formula: C18H22N2O2
Exact mass: 298.1681279
SMILES: CC(C)CC(C)NC1=CC(=O)C(=CC1=O)NC2=CC=CC=C2
InChI: InChI=1S/C18H22N2O2/c1-12(2)9-13(3)19-15-10-18(22)16(11-17(15)21)20-14-7-5-4-6-8-14/h4-8,10-13,19-20H,9H2,1-3H3
Instrument: Exploris 240 Orbitrap Thermo Scientific
Instrument type: LC-ESI-QFT
Ms type: MS2
Ion mode: POSITIVE
Ionization: ESI
Fragmentation mode: HCD
Collision energy: 60 % (nominal)
Resolution: 17500
Column name: XBridge C18 3.5um, 2.1x50mm, Waters
Retention time: 11.329 min
Base peak: 299.175
Precursor m/z: 299.1754
Precursor type: [M+H]+
m/z	relative intensity	assigned
55.0179	16	C3H3O+
57.0699	39	C4H9+
58.065	38	C3H8N+
84.0443	36	C4H6NO+
84.0809	11	C5H10N+
85.1009	8	C6H13+
93.0572	17	C6H7N+
94.0651	63	C6H8N+
104.0494	25	C7H6N+
109.0286	16	C6H5O2+
118.0648	12	C8H8N+
123.0437	10	C7H7O2+
146.0597	34	C9H8NO+
150.0551	11	C8H8NO2+
159.091	11	C10H11N2+
164.0707	13	C9H10NO2+
170.06	87	C11H8NO+
172.0751	38	C11H10NO+
182.0595	12	C12H8NO+
187.0865	889	C11H11N2O+
198.0554	22	C12H8NO2+
200.0704	69	C12H10NO2+
201.0779	46	C12H11NO2+
215.0811	161	C12H11N2O2+
216.0893	63	C12H12N2O2+
227.081	21	C13H11N2O2+
241.0971	999	C14H13N2O2+
243.113	34	C14H15N2O2+
256.1203	128	C15H16N2O2+
257.1291	18	C15H17N2O2+
299.1753	53	C18H23N2O2+
