Mass spectrum: Tinuvin144; LC-ESI-QFT; MS2; CE: 150%; R=17500; [M+H]+
Name: Tinuvin144
Name: bis(1,2,2,6,6-pentamethylpiperidin-4-yl) 2-butyl-2-[(3,5-ditert-butyl-4-hydroxyphenyl)methyl]propanedioate
Formula: C42H72N2O5
Exact mass: 684.5441234
SMILES: CCCCC(CC1=CC(=C(C(=C1)C(C)(C)C)O)C(C)(C)C)(C(=O)OC2CC(N(C(C2)(C)C)C)(C)C)C(=O)OC3CC(N(C(C3)(C)C)C)(C)C
InChI: InChI=1S/C42H72N2O5/c1-18-19-20-42(34(46)48-29-24-38(8,9)43(16)39(10,11)25-29,35(47)49-30-26-40(12,13)44(17)41(14,15)27-30)23-28-21-31(36(2,3)4)33(45)32(22-28)37(5,6)7/h21-22,29-30,45H,18-20,23-27H2,1-17H3
Instrument: Exploris 240 Orbitrap Thermo Scientific
Instrument type: LC-ESI-QFT
Ms type: MS2
Ion mode: POSITIVE
Ionization: ESI
Fragmentation mode: HCD
Collision energy: 150 % (nominal)
Resolution: 17500
Column name: XBridge C18 3.5um, 2.1x50mm, Waters
Retention time: 10.968 min
Base peak: 343.279
Precursor m/z: 685.5514
Precursor type: [M+H]+
m/z	relative intensity	assigned
72.0808	999	C4H10N+
77.0385	21	C6H5+
79.0543	66	C6H7+
81.0572	3	C5H7N+
81.0698	21	C6H9+
82.0651	5	C5H8N+
84.0806	11	C5H10N+
91.0542	66	C7H7+
93.07	9	C7H9+
95.0491	12	C6H7O+
96.0808	7	C6H10N+
98.0964	4	C6H12N+
103.0541	9	C8H7+
104.0621	3	C8H8+
105.0447	10	C6H5N2+
105.0699	25	C8H9+
115.0542	18	C9H7+
116.0622	4	C9H8+
117.0698	16	C9H9+
119.0858	8	C9H11+
128.0621	9	C10H8+
129.0699	11	C10H9+
130.078	6	C10H10+
141.0699	3	C11H9+
145.1016	5	C11H13+
