Mass spectrum: 2'-Deoxyguanosine; LC-ESI-QFT; MS2; CE: 180%; R=17500; [M+H]+
Name: 2'-Deoxyguanosine
Name: CID 638
Name: 2-amino-9-[4-hydroxy-5-(hydroxymethyl)oxolan-2-yl]-3H-purin-6-one
Formula: C10H13N5O4
Exact mass: 267.0967539
SMILES: C1C(C(OC1N2C=NC3=C2N=C(NC3=O)N)CO)O
InChI: InChI=1S/C10H13N5O4/c11-10-13-8-7(9(18)14-10)12-3-15(8)6-1-4(17)5(2-16)19-6/h3-6,16-17H,1-2H2,(H3,11,13,14,18)
Instrument: Exploris 240 Orbitrap Thermo Scientific
Instrument type: LC-ESI-QFT
Ms type: MS2
Ion mode: POSITIVE
Ionization: ESI
Fragmentation mode: HCD
Collision energy: 180 % (nominal)
Resolution: 17500
Column name: XBridge C18 3.5um, 2.1x50mm, Waters
Retention time: 1.694 min
Base peak: 152.0566
Precursor m/z: 268.104
Precursor type: [M+H]+
m/z	relative intensity	assigned
53.0134	269	C2HN2+
53.0385	64	C4H5+
55.029	999	C2H3N2+
65.0134	285	C3HN2+
68.0132	42	C3H2NO+
68.0242	113	C2H2N3+
69.0336	31	C4H5O+
80.0244	207	C3H2N3+
82.0398	89	C3H4N3+
93.0081	49	C4HN2O+
110.035	52	C4H4N3O+
