Mass spectrum: 2,6-Di-Tert-Butyl-4-Nitrophenol; LC-ESI-QFT; MS2; CE: 75%; R=17500; [M+H]+
Name: 2,6-Di-Tert-Butyl-4-Nitrophenol
Name: 2,6-ditert-butyl-4-nitrophenol
Formula: C14H21NO3
Exact mass: 251.1521435
SMILES: CC(C)(C)C1=CC(=CC(=C1O)C(C)(C)C)[N+](=O)[O-]
InChI: InChI=1S/C14H21NO3/c1-13(2,3)10-7-9(15(17)18)8-11(12(10)16)14(4,5)6/h7-8,16H,1-6H3
Instrument: Exploris 240 Orbitrap Thermo Scientific
Instrument type: LC-ESI-QFT
Ms type: MS2
Ion mode: POSITIVE
Ionization: ESI
Fragmentation mode: HCD
Collision energy: 75 % (nominal)
Resolution: 17500
Column name: XBridge C18 3.5um, 2.1x50mm, Waters
Retention time: 13.507 min
Base peak: 252.1592
Precursor m/z: 252.1594
Precursor type: [M+H]+
m/z	relative intensity	assigned
55.0543	72	C4H7+
57.0699	954	C4H9+
79.0542	70	C6H7+
91.0543	156	C7H7+
93.0698	129	C7H9+
105.0698	207	C8H9+
107.0494	73	C7H7O+
107.0857	47	C8H11+
117.0696	89	C9H9+
119.0494	80	C8H7O+
119.0856	104	C9H11+
121.0651	74	C8H9O+
121.1017	129	C9H13+
123.0804	87	C8H11O+
130.0778	34	C10H10+
131.086	65	C10H11+
135.0809	59	C9H11O+
145.1017	54	C11H13+
147.0804	302	C10H11O+
149.0961	831	C10H13O+
163.1117	481	C11H15O+
175.1118	89	C12H15O+
177.1272	36	C12H17O+
190.1351	483	C13H18O+
191.1435	73	C13H19O+
192.1016	115	C11H14NO2+
220.1332	999	C13H18NO2+
222.1256	94	C13H18O3+
235.1567	499	C14H21NO2+
