Mass spectrum: Kaempferol; LC-ESI-QFT; MS2; CE: 150%; R=17500; [M+H]+
Name: Kaempferol
Name: 3,5,7-trihydroxy-2-(4-hydroxyphenyl)chromen-4-one
Formula: C15H10O6
Exact mass: 286.047738
SMILES: C1=CC(=CC=C1C2=C(C(=O)C3=C(C=C(C=C3O2)O)O)O)O
InChI: InChI=1S/C15H10O6/c16-8-3-1-7(2-4-8)15-14(20)13(19)12-10(18)5-9(17)6-11(12)21-15/h1-6,16-18,20H
Instrument: Exploris 240 Orbitrap Thermo Scientific
Instrument type: LC-ESI-QFT
Ms type: MS2
Ion mode: POSITIVE
Ionization: ESI
Fragmentation mode: HCD
Collision energy: 150 % (nominal)
Resolution: 17500
Column name: XBridge C18 3.5um, 2.1x50mm, Waters
Retention time: 6.956 min
Base peak: 287.0548
Precursor m/z: 287.055
Precursor type: [M+H]+
m/z	relative intensity	assigned
50.0151	29	C4H2+
51.0229	191	C4H3+
53.0022	29	C3HO+
53.0386	147	C4H5+
55.0178	88	C3H3O+
63.0231	53	C5H3+
65.0386	619	C5H5+
67.018	39	C4H3O+
68.9971	999	C3HO2+
69.0334	60	C4H5O+
77.0386	302	C6H5+
78.0461	21	C6H6+
79.0179	39	C5H3O+
79.0542	48	C6H7+
81.0335	40	C5H5O+
89.0385	68	C7H5+
91.0542	87	C7H7+
93.0337	34	C6H5O+
95.049	91	C6H7O+
103.0543	40	C8H7+
105.0337	36	C7H5O+
107.0495	32	C7H7O+
108.0206	16	C6H4O2+
111.0441	27	C6H7O2+
115.0542	138	C9H7+
121.0283	53	C7H5O2+
127.0546	42	C10H7+
128.0622	199	C10H8+
131.0493	33	C9H7O+
139.0544	54	C11H7+
