Mass spectrum: Antioxidant 22; LC-ESI-QFT; MS2; CE: 90%; R=17500; [M+H]+
Name: Antioxidant 22
Name: 1-N,4-N-di(butan-2-yl)benzene-1,4-diamine
Formula: C14H24N2
Exact mass: 220.1939488
SMILES: CCC(C)NC1=CC=C(C=C1)NC(C)CC
InChI: InChI=1S/C14H24N2/c1-5-11(3)15-13-7-9-14(10-8-13)16-12(4)6-2/h7-12,15-16H,5-6H2,1-4H3
Instrument: Exploris 240 Orbitrap Thermo Scientific
Instrument type: LC-ESI-QFT
Ms type: MS2
Ion mode: POSITIVE
Ionization: ESI
Fragmentation mode: HCD
Collision energy: 90 % (nominal)
Resolution: 17500
Column name: XBridge C18 3.5um, 2.1x50mm, Waters
Retention time: 6.080 min
Base peak: 132.9582
Precursor m/z: 221.2012
Precursor type: [M+H]+
m/z	relative intensity	assigned
57.0698	8	C4H9+
65.0388	2	C5H5+
91.0541	6	C7H7+
92.0495	25	C6H6N+
93.0573	80	C6H7N+
107.0604	71	C6H7N2+
108.0682	21	C6H8N2+
108.0808	42	C7H10N+
109.0761	16	C6H9N2+
118.0651	108	C8H8N+
119.0725	4	C8H9N+
120.0812	4	C8H10N+
133.0755	3	C8H9N2+
134.0836	10	C8H10N2+
135.0917	999	C8H11N2+
149.1074	101	C9H13N2+
164.1307	2	C10H16N2+
