Mass spectrum: UV120; LC-ESI-QFT; MS2; CE: 90%; R=17500; [M+H]+
Name: UV120
Name: 2,4-Di-tert-butylphenyl 3',5'-di-tert-butyl-4'-hydroxybenzoate
Name: (2,4-ditert-butylphenyl) 3,5-ditert-butyl-4-hydroxybenzoate
Formula: C29H42O3
Exact mass: 438.3133952
SMILES: CC(C)(C)C1=CC(=C(C=C1)OC(=O)C2=CC(=C(C(=C2)C(C)(C)C)O)C(C)(C)C)C(C)(C)C
InChI: InChI=1S/C29H42O3/c1-26(2,3)19-13-14-23(20(17-19)27(4,5)6)32-25(31)18-15-21(28(7,8)9)24(30)22(16-18)29(10,11)12/h13-17,30H,1-12H3
Instrument: Exploris 240 Orbitrap Thermo Scientific
Instrument type: LC-ESI-QFT
Ms type: MS2
Ion mode: POSITIVE
Ionization: ESI
Fragmentation mode: HCD
Collision energy: 90 % (nominal)
Resolution: 17500
Column name: XBridge C18 3.5um, 2.1x50mm, Waters
Retention time: 18.102 min
Base peak: 439.3203
Precursor m/z: 439.3207
Precursor type: [M+H]+
m/z	relative intensity	assigned
55.0543	185	C4H7+
57.0699	759	C4H9+
67.0541	29	C5H7+
69.07	54	C5H9+
77.0389	46	C6H5+
79.0543	201	C6H7+
81.07	37	C6H9+
91.0543	511	C7H7+
93.0699	351	C7H9+
95.0853	21	C7H11+
103.0546	84	C8H7+
105.0699	566	C8H9+
106.0779	43	C8H10+
107.0494	131	C7H7O+
107.0857	85	C8H11+
115.0541	50	C9H7+
116.0624	51	C9H8+
117.0698	220	C9H9+
119.0492	181	C8H7O+
119.0854	395	C9H11+
121.065	155	C8H9O+
121.1012	235	C9H13+
123.08	145	C8H11O+
128.062	37	C10H8+
129.07	86	C10H9+
130.0774	101	C10H10+
131.0852	113	C10H11+
133.065	63	C9H9O+
133.101	111	C10H13+
135.0801	102	C9H11O+
135.1165	57	C10H15+
143.0855	48	C11H11+
145.1011	97	C11H13+
147.0804	599	C10H11O+
147.1164	34	C11H15+
149.0961	999	C10H13O+
159.0803	179	C11H11O+
160.0887	21	C11H12O+
161.0959	39	C11H13O+
163.1119	286	C11H15O+
174.1039	190	C12H14O+
175.1116	178	C12H15O+
190.1357	123	C13H18O+
201.0913	86	C13H13O2+
203.107	55	C13H15O2+
217.1224	978	C14H17O2+
233.1538	977	C15H21O2+
