Mass spectrum: Curcumin; LC-ESI-QFT; MS2; CE: 60%; R=17500; [M+H]+
Name: Curcumin
Name: 1,7-Bis(4-hydroxy-3-methoxyphenyl)-1,6-heptadiene-3,5-dione
Name: 1,7-bis(4-hydroxy-3-methoxyphenyl)hepta-1,6-diene-3,5-dione
Formula: C21H20O6
Exact mass: 368.1259884
SMILES: COC1=C(C=CC(=C1)C=CC(=O)CC(=O)C=CC2=CC(=C(C=C2)O)OC)O
InChI: InChI=1S/C21H20O6/c1-26-20-11-14(5-9-18(20)24)3-7-16(22)13-17(23)8-4-15-6-10-19(25)21(12-15)27-2/h3-12,24-25H,13H2,1-2H3
Instrument: Exploris 240 Orbitrap Thermo Scientific
Instrument type: LC-ESI-QFT
Ms type: MS2
Ion mode: POSITIVE
Ionization: ESI
Fragmentation mode: HCD
Collision energy: 60 % (nominal)
Resolution: 17500
Column name: XBridge C18 3.5um, 2.1x50mm, Waters
Retention time: 9.566 min
Base peak: 369.1332
Precursor m/z: 369.1333
Precursor type: [M+H]+
m/z	relative intensity	assigned
68.9971	35	C3HO2+
89.0385	49	C7H5+
91.0541	16	C7H7+
103.0541	5	C8H7+
105.07	7	C8H9+
117.0335	324	C8H5O+
119.0489	20	C8H7O+
131.049	5	C9H7O+
134.0364	17	C8H6O2+
136.0519	82	C8H8O2+
137.0598	63	C8H9O2+
145.0284	999	C9H5O2+
146.0364	44	C9H6O2+
149.0597	146	C9H9O2+
151.0388	11	C8H7O3+
151.0758	29	C9H11O2+
161.0598	128	C10H9O2+
162.0317	7	C9H6O3+
165.0704	15	C13H9+
175.0752	10	C11H11O2+
177.0546	486	C10H9O3+
193.0646	27	C14H9O+
210.0677	18	C14H10O2+
219.0648	9	C12H11O4+
221.0597	47	C15H9O2+
225.091	63	C15H13O2+
253.0859	54	C16H13O3+
