Mass spectrum: (-)-Epigallocatechin Gallate; LC-ESI-QFT; MS2; CE: 30%; R=17500; [M+H]+
Name: (-)-Epigallocatechin Gallate
Name: Tea, ext.
Name: [5,7-dihydroxy-2-(3,4,5-trihydroxyphenyl)-3,4-dihydro-2H-chromen-3-yl] 3,4,5-trihydroxybenzoate
Formula: C22H18O11
Exact mass: 458.0849114
SMILES: C1C(C(OC2=CC(=CC(=C21)O)O)C3=CC(=C(C(=C3)O)O)O)OC(=O)C4=CC(=C(C(=C4)O)O)O
InChI: InChI=1S/C22H18O11/c23-10-5-12(24)11-7-18(33-22(31)9-3-15(27)20(30)16(28)4-9)21(32-17(11)6-10)8-1-13(25)19(29)14(26)2-8/h1-6,18,21,23-30H,7H2
Instrument: Exploris 240 Orbitrap Thermo Scientific
Instrument type: LC-ESI-QFT
Ms type: MS2
Ion mode: POSITIVE
Ionization: ESI
Fragmentation mode: HCD
Collision energy: 30 % (nominal)
Resolution: 17500
Column name: XBridge C18 3.5um, 2.1x50mm, Waters
Retention time: 3.432 min
Base peak: 132.9582
Precursor m/z: 459.0922
Precursor type: [M+H]+
m/z	relative intensity	assigned
139.0389	999	C7H7O3+
151.039	136	C8H7O3+
153.0182	112	C7H5O4+
163.0386	18	C9H7O3+
169.0493	4	C8H9O4+
181.0494	30	C9H9O4+
205.0494	17	C11H9O4+
289.0702	31	C15H13O6+
307.0826	5	C15H15O7+
