Mass spectrum: Drometrizole; LC-ESI-QFT; MS2; CE: 90%; R=17500; [M+H]+
Name: Drometrizole
Name: 2-(benzotriazol-2-yl)-4-methylphenol
Formula: C13H11N3O
Exact mass: 225.090212
SMILES: CC1=CC(=C(C=C1)O)N2N=C3C=CC=CC3=N2
InChI: InChI=1S/C13H11N3O/c1-9-6-7-13(17)12(8-9)16-14-10-4-2-3-5-11(10)15-16/h2-8,17H,1H3
Instrument: Exploris 240 Orbitrap Thermo Scientific
Instrument type: LC-ESI-QFT
Ms type: MS2
Ion mode: POSITIVE
Ionization: ESI
Fragmentation mode: HCD
Collision energy: 90 % (nominal)
Resolution: 17500
Column name: XBridge C18 3.5um, 2.1x50mm, Waters
Retention time: 13.562 min
Base peak: 226.0974
Precursor m/z: 226.0975
Precursor type: [M+H]+
m/z	relative intensity	assigned
51.0229	24	C4H3+
53.0386	194	C4H5+
65.0386	257	C5H5+
77.0386	571	C6H5+
79.0419	90	C5H5N+
79.0542	999	C6H7+
80.0496	16	C5H6N+
81.0335	19	C5H5O+
91.0416	12	C6H5N+
92.0495	132	C6H6N+
94.0415	23	C6H6O+
94.0653	27	C6H8N+
95.0492	204	C6H7O+
105.0447	356	C6H5N2+
106.0525	102	C6H6N2+
107.0492	288	C7H7O+
120.0556	407	C6H6N3+
128.062	45	C10H8+
152.0623	23	C12H8+
154.0653	265	C11H8N+
155.0735	52	C11H9N+
168.0808	39	C12H10N+
180.081	36	C13H10N+
181.0764	59	C12H9N2+
182.0844	44	C12H10N2+
196.0759	19	C13H10NO+
197.083	8	C13H11NO+
