Mass spectrum: 2,4-ditert-butyl-6-(5-chlorobenzotriazol-2-yl)phenol; LC-ESI-QFT; MS2; CE: 90%; R=17500; [M+H]+
Name: 2,4-ditert-butyl-6-(5-chlorobenzotriazol-2-yl)phenol
Name: UV-327
Formula: C20H24ClN3O
Exact mass: 357.1607901
SMILES: CC(C)(C)C1=CC(=C(C(=C1)N2N=C3C=CC(=CC3=N2)Cl)O)C(C)(C)C
InChI: InChI=1S/C20H24ClN3O/c1-19(2,3)12-9-14(20(4,5)6)18(25)17(10-12)24-22-15-8-7-13(21)11-16(15)23-24/h7-11,25H,1-6H3
Instrument: Exploris 240 Orbitrap Thermo Scientific
Instrument type: LC-ESI-QFT
Ms type: MS2
Ion mode: POSITIVE
Ionization: ESI
Fragmentation mode: HCD
Collision energy: 90 % (nominal)
Resolution: 17500
Column name: XBridge C18 3.5um, 2.1x50mm, Waters
Retention time: 20.073 min
Base peak: 447.3466
Precursor m/z: 358.1681
Precursor type: [M+H]+
m/z	relative intensity	assigned
57.0698	999	C4H9+
65.0386	60	C5H5+
90.0338	81	C6H4N+
91.0542	61	C7H7+
98.9996	115	C5H4Cl+
105.0448	78	C6H5N2+
105.0702	88	C8H9+
114.0101	109	C5H5ClN+
126.0104	115	C6H5ClN+
141.0214	67	C6H6ClN2+
