Mass spectrum: Kaempferol; LC-ESI-QFT; MS2; CE: 180%; R=17500; [M+H]+
Name: Kaempferol
Name: 3,5,7-trihydroxy-2-(4-hydroxyphenyl)chromen-4-one
Formula: C15H10O6
Exact mass: 286.047738
SMILES: C1=CC(=CC=C1C2=C(C(=O)C3=C(C=C(C=C3O2)O)O)O)O
InChI: InChI=1S/C15H10O6/c16-8-3-1-7(2-4-8)15-14(20)13(19)12-10(18)5-9(17)6-11(12)21-15/h1-6,16-18,20H
Instrument: Exploris 240 Orbitrap Thermo Scientific
Instrument type: LC-ESI-QFT
Ms type: MS2
Ion mode: POSITIVE
Ionization: ESI
Fragmentation mode: HCD
Collision energy: 180 % (nominal)
Resolution: 17500
Column name: XBridge C18 3.5um, 2.1x50mm, Waters
Retention time: 6.956 min
Base peak: 287.0548
Precursor m/z: 287.055
Precursor type: [M+H]+
m/z	relative intensity	assigned
50.0151	64	C4H2+
51.0229	339	C4H3+
53.0022	28	C3HO+
53.0385	126	C4H5+
55.0178	35	C3H3O+
63.023	140	C5H3+
65.0386	576	C5H5+
67.018	17	C4H3O+
68.9971	999	C3HO2+
75.0229	35	C6H3+
77.0386	222	C6H5+
78.0463	68	C6H6+
81.0334	36	C5H5O+
89.0386	107	C7H5+
91.0544	36	C7H7+
95.0492	102	C6H7O+
115.0543	94	C9H7+
127.0543	26	C10H7+
128.0617	84	C10H8+
139.0541	43	C11H7+
