Mass spectrum: Tinuvin144; LC-ESI-QFT; MS2; CE: 120%; R=17500; [M+H]+
Name: Tinuvin144
Name: bis(1,2,2,6,6-pentamethylpiperidin-4-yl) 2-butyl-2-[(3,5-ditert-butyl-4-hydroxyphenyl)methyl]propanedioate
Formula: C42H72N2O5
Exact mass: 684.5441234
SMILES: CCCCC(CC1=CC(=C(C(=C1)C(C)(C)C)O)C(C)(C)C)(C(=O)OC2CC(N(C(C2)(C)C)C)(C)C)C(=O)OC3CC(N(C(C3)(C)C)C)(C)C
InChI: InChI=1S/C42H72N2O5/c1-18-19-20-42(34(46)48-29-24-38(8,9)43(16)39(10,11)25-29,35(47)49-30-26-40(12,13)44(17)41(14,15)27-30)23-28-21-31(36(2,3)4)33(45)32(22-28)37(5,6)7/h21-22,29-30,45H,18-20,23-27H2,1-17H3
Instrument: Exploris 240 Orbitrap Thermo Scientific
Instrument type: LC-ESI-QFT
Ms type: MS2
Ion mode: POSITIVE
Ionization: ESI
Fragmentation mode: HCD
Collision energy: 120 % (nominal)
Resolution: 17500
Column name: XBridge C18 3.5um, 2.1x50mm, Waters
Retention time: 10.968 min
Base peak: 343.279
Precursor m/z: 685.5514
Precursor type: [M+H]+
m/z	relative intensity	assigned
72.0808	999	C4H10N+
77.0386	6	C6H5+
79.0542	45	C6H7+
81.0699	39	C6H9+
82.0649	1	C5H8N+
84.0808	8	C5H10N+
85.0885	1	C5H11N+
86.0963	4	C5H12N+
91.0541	21	C7H7+
93.0697	12	C7H9+
95.0493	3	C6H7O+
95.0855	4	C7H11+
96.0807	7	C6H10N+
98.0964	17	C6H12N+
103.0542	2	C8H7+
105.0448	3	C6H5N2+
105.0697	19	C8H9+
107.0854	2	C8H11+
115.054	3	C9H7+
117.07	5	C9H9+
119.0857	12	C9H11+
121.101	3	C9H13+
128.0625	3	C10H8+
129.0699	3	C10H9+
130.0774	2	C10H10+
131.0856	4	C10H11+
133.1011	7	C10H13+
141.07	1	C11H9+
145.1012	6	C11H13+
147.08	3	C10H11O+
155.0853	2	C12H11+
173.0962	3	C12H13O+
