Mass spectrum: 3',4,4',5,7-Pentahydroxyflavan; LC-ESI-QFT; MS2; CE: 75%; R=17500; [M+H]+
Name: 3',4,4',5,7-Pentahydroxyflavan
Name: 2-(3,4-dihydroxyphenyl)-3,4-dihydro-2H-chromene-4,5,7-triol
Formula: C15H14O6
Exact mass: 290.0790382
SMILES: C1C(C2=C(C=C(C=C2OC1C3=CC(=C(C=C3)O)O)O)O)O
InChI: InChI=1S/C15H14O6/c16-8-4-11(19)15-12(20)6-13(21-14(15)5-8)7-1-2-9(17)10(18)3-7/h1-5,12-13,16-20H,6H2
Instrument: Exploris 240 Orbitrap Thermo Scientific
Instrument type: LC-ESI-QFT
Ms type: MS2
Ion mode: POSITIVE
Ionization: ESI
Fragmentation mode: HCD
Collision energy: 75 % (nominal)
Resolution: 17500
Column name: XBridge C18 3.5um, 2.1x50mm, Waters
Retention time: 2.891 min
Base peak: 291.0861
Precursor m/z: 291.0863
Precursor type: [M+H]+
m/z	relative intensity	assigned
53.0385	16	C4H5+
55.0178	92	C3H3O+
55.054	10	C4H7+
65.0385	63	C5H5+
67.0178	21	C4H3O+
67.0542	75	C5H7+
68.9971	83	C3HO2+
69.0336	17	C4H5O+
77.0385	28	C6H5+
79.0541	9	C6H7+
83.0492	32	C5H7O+
85.0285	10	C4H5O2+
91.0541	92	C7H7+
93.0334	79	C6H5O+
95.0491	64	C6H7O+
97.0285	20	C5H5O2+
105.0336	24	C7H5O+
105.0698	22	C8H9+
107.0491	13	C7H7O+
111.044	115	C6H7O2+
115.0542	63	C9H7+
119.049	180	C8H7O+
121.0285	14	C7H5O2+
123.044	999	C7H7O2+
127.0392	9	C6H7O3+
131.0489	19	C9H7O+
133.0645	36	C9H9O+
137.0232	29	C7H5O3+
137.0601	15	C8H9O2+
139.0389	808	C7H7O3+
143.0489	76	C10H7O+
147.044	278	C9H7O2+
149.0595	10	C9H9O2+
161.0598	105	C10H9O2+
163.0395	16	C9H7O3+
165.0549	19	C9H9O3+
177.0551	9	C10H9O3+
189.0544	18	C11H9O3+
