Mass spectrum: OG; LC-ESI-QFT; MS2; CE: 45%; R=17500; [M+H]+
Name: OG
Name: Octyl gallate
Name: octyl 3,4,5-trihydroxybenzoate
Formula: C15H22O5
Exact mass: 282.1467
SMILES: CCCCCCCCOC(=O)C1=CC(=C(C(=C1)O)O)O
InChI: InChI=1S/C15H22O5/c1-2-3-4-5-6-7-8-20-15(19)11-9-12(16)14(18)13(17)10-11/h9-10,16-18H,2-8H2,1H3
Instrument: Exploris 240 Orbitrap Thermo Scientific
Instrument type: LC-ESI-QFT
Ms type: MS2
Ion mode: POSITIVE
Ionization: ESI
Fragmentation mode: HCD
Collision energy: 45 % (nominal)
Resolution: 17500
Column name: XBridge C18 3.5um, 2.1x50mm, Waters
Retention time: 11.221 min
Base peak: 283.1537
Precursor m/z: 283.154
Precursor type: [M+H]+
m/z	relative intensity	assigned
57.0698	322	C4H9+
71.0854	241	C5H11+
107.0126	64	C6H3O2+
109.0283	415	C6H5O2+
125.0231	153	C6H5O3+
127.0388	999	C6H7O3+
153.018	661	C7H5O4+
171.0286	432	C7H7O5+
