Mass spectrum: Apigenin; LC-ESI-QFT; MS2; CE: 90%; R=17500; [M+H]+
Name: Apigenin
Name: 5,7-dihydroxy-2-(4-hydroxyphenyl)chromen-4-one
Formula: C15H10O5
Exact mass: 270.0528234
SMILES: C1=CC(=CC=C1C2=CC(=O)C3=C(C=C(C=C3O2)O)O)O
InChI: InChI=1S/C15H10O5/c16-9-3-1-8(2-4-9)13-7-12(19)15-11(18)5-10(17)6-14(15)20-13/h1-7,16-18H
Instrument: Exploris 240 Orbitrap Thermo Scientific
Instrument type: LC-ESI-QFT
Ms type: MS2
Ion mode: POSITIVE
Ionization: ESI
Fragmentation mode: HCD
Collision energy: 90 % (nominal)
Resolution: 17500
Column name: XBridge C18 3.5um, 2.1x50mm, Waters
Retention time: 7.105 min
Base peak: 271.0597
Precursor m/z: 271.0601
Precursor type: [M+H]+
m/z	relative intensity	assigned
55.0179	14	C3H3O+
65.0385	81	C5H5+
67.0178	388	C4H3O+
68.997	477	C3HO2+
69.0335	61	C4H5O+
79.0177	29	C5H3O+
81.0333	25	C5H5O+
83.0125	25	C4H3O2+
91.0541	666	C7H7+
97.0284	50	C5H5O2+
111.0075	33	C5H3O3+
115.0542	62	C9H7+
119.049	545	C8H7O+
121.0284	231	C7H5O2+
125.0233	44	C6H5O3+
131.0489	27	C9H7O+
141.0696	52	C11H9+
145.0282	246	C9H5O2+
153.0181	999	C7H5O4+
155.0493	38	C11H7O+
163.0391	39	C9H7O3+
168.0569	28	C12H8O+
169.0648	34	C12H9O+
197.0604	27	C13H9O2+
225.0536	16	C14H9O3+
243.0641	51	C14H11O4+
271.0598	141	C15H11O5+
