Mass spectrum: Idebenone; LC-ESI-QFT; MS2; CE: 60%; R=17500; [M+H]+
Name: Idebenone
Name: 2-(10-hydroxydecyl)-5,6-dimethoxy-3-methylcyclohexa-2,5-diene-1,4-dione
Formula: C19H30O5
Exact mass: 338.2093241
SMILES: CC1=C(C(=O)C(=C(C1=O)OC)OC)CCCCCCCCCCO
InChI: InChI=1S/C19H30O5/c1-14-15(12-10-8-6-4-5-7-9-11-13-20)17(22)19(24-3)18(23-2)16(14)21/h20H,4-13H2,1-3H3
Instrument: Exploris 240 Orbitrap Thermo Scientific
Instrument type: LC-ESI-QFT
Ms type: MS2
Ion mode: POSITIVE
Ionization: ESI
Fragmentation mode: HCD
Collision energy: 60 % (nominal)
Resolution: 17500
Column name: XBridge C18 3.5um, 2.1x50mm, Waters
Retention time: 12.384 min
Base peak: 339.2163
Precursor m/z: 339.2166
Precursor type: [M+H]+
m/z	relative intensity	assigned
55.0543	189	C4H7+
57.0698	44	C4H9+
67.0542	167	C5H7+
69.0697	112	C5H9+
79.0539	84	C6H7+
81.0699	168	C6H9+
83.0855	42	C6H11+
91.0543	111	C7H7+
93.0701	85	C7H9+
95.0496	30	C6H7O+
95.0854	117	C7H11+
105.0699	55	C8H9+
107.0491	21	C7H7O+
108.057	23	C7H8O+
109.0646	110	C7H9O+
111.0439	78	C6H7O2+
117.0698	55	C9H9+
120.057	25	C8H8O+
121.0647	204	C8H9O+
123.0803	160	C8H11O+
131.0494	21	C9H7O+
131.0853	45	C10H11+
133.0648	30	C9H9O+
135.0805	63	C9H11O+
136.052	142	C8H8O2+
137.0597	229	C8H9O2+
139.0755	55	C8H11O2+
140.0466	38	C7H8O3+
145.0655	48	C10H9O+
145.1013	54	C11H13+
149.0599	50	C9H9O2+
151.0753	554	C9H11O2+
153.055	51	C8H9O3+
154.0624	897	C8H10O3+
155.0704	42	C8H11O3+
159.0805	42	C11H11O+
161.0597	56	C10H9O2+
162.0682	19	C10H10O2+
163.0758	71	C10H11O2+
164.0473	102	C9H8O3+
165.0546	31	C9H9O3+
166.0622	59	C9H10O3+
167.0698	82	C9H11O3+
169.0859	478	C9H13O3+
173.0599	42	C11H9O2+
175.0395	24	C10H7O3+
175.0761	22	C11H11O2+
176.0467	37	C10H8O3+
177.0548	93	C10H9O3+
177.0908	31	C11H13O2+
179.0709	33	C10H11O3+
181.086	114	C10H13O3+
182.0573	481	C9H10O4+
183.0654	49	C9H11O4+
190.0624	59	C11H10O3+
191.0701	138	C11H11O3+
196.0733	46	C10H12O4+
197.0808	999	C10H13O4+
289.18	30	C18H25O3+
