Mass spectrum: 6PPD-Quinone; LC-ESI-QFT; MS2; CE: 30%; R=17500; [M+H]+
Name: 6PPD-Quinone
Name: 2-anilino-5-(4-methylpentan-2-ylamino)cyclohexa-2,5-diene-1,4-dione
Formula: C18H22N2O2
Exact mass: 298.1681279
SMILES: CC(C)CC(C)NC1=CC(=O)C(=CC1=O)NC2=CC=CC=C2
InChI: InChI=1S/C18H22N2O2/c1-12(2)9-13(3)19-15-10-18(22)16(11-17(15)21)20-14-7-5-4-6-8-14/h4-8,10-13,19-20H,9H2,1-3H3
Instrument: Exploris 240 Orbitrap Thermo Scientific
Instrument type: LC-ESI-QFT
Ms type: MS2
Ion mode: POSITIVE
Ionization: ESI
Fragmentation mode: HCD
Collision energy: 30 % (nominal)
Resolution: 17500
Column name: XBridge C18 3.5um, 2.1x50mm, Waters
Retention time: 11.329 min
Base peak: 299.175
Precursor m/z: 299.1754
Precursor type: [M+H]+
m/z	relative intensity	assigned
57.0697	3	C4H9+
85.1011	8	C6H13+
100.1119	12	C6H14N+
187.0865	13	C11H11N2O+
200.0696	4	C12H10NO2+
215.0813	253	C12H11N2O2+
241.0979	5	C14H13N2O2+
243.1124	32	C14H15N2O2+
256.1206	29	C15H16N2O2+
257.1285	4	C15H17N2O2+
299.1752	999	C18H23N2O2+
