Mass spectrum: 3`,4,4`,5,7-Pentahydroxyflavan; LC-ESI-QFT; MS2; CE: 90%; R=17500; [M-H]-
Name: 3`,4,4`,5,7-Pentahydroxyflavan
Name: 2-(3,4-dihydroxyphenyl)-3,4-dihydro-2H-chromene-4,5,7-triol
Formula: C15H14O6
Exact mass: 290.079038168
SMILES: C1C(C2=C(C=C(C=C2OC1C3=CC(=C(C=C3)O)O)O)O)O
InChI: InChI=1S/C15H14O6/c16-8-4-11(19)15-12(20)6-13(21-14(15)5-8)7-1-2-9(17)10(18)3-7/h1-5,12-13,16-20H,6H2
Instrument: Exploris 240 Orbitrap Thermo Scientific
Instrument type: LC-ESI-QFT
Ms type: MS2
Ion mode: NEGATIVE
Ionization: ESI
Fragmentation mode: HCD
Collision energy: 90 % (nominal)
Resolution: 17500
Column name: XBridge C18 3.5um, 2.1x50mm, Waters
Retention time: 2.902 min
Base peak: 289.0717
Precursor m/z: 289.0718
Precursor type: [M-H]-
m/z	relative intensity	assigned
55.019	49	C3H3O-
57.0346	384	C3H5O-
67.0191	37	C4H3O-
69.0345	193	C4H5O-
77.0396	30	C6H5-
80.0269	61	C5H4O-
81.0347	150	C5H5O-
83.0138	247	C4H3O2-
93.0345	215	C6H5O-
95.0141	61	C5H3O2-
95.0503	155	C6H7O-
97.0294	254	C5H5O2-
105.0347	60	C7H5O-
108.0216	192	C6H4O2-
109.0294	999	C6H5O2-
117.0348	57	C8H5O-
121.0295	147	C7H5O2-
122.0373	265	C7H6O2-
123.0451	730	C7H7O2-
125.0246	93	C6H5O3-
133.0297	25	C8H5O2-
135.0455	106	C8H7O2-
137.0244	128	C7H5O3-
139.0405	63	C7H7O3-
145.0296	70	C9H5O2-
146.0375	28	C9H6O2-
149.0249	46	C8H5O3-
150.0327	78	C8H6O3-
151.0402	49	C8H7O3-
159.0452	146	C10H7O2-
161.0608	22	C10H9O2-
173.0616	66	C11H9O2-
