Mass spectrum: AO1024; LC-ESI-QFT; MS2; CE: 150%; R=17500; [M+H]+
Name: AO1024
Name: 1,2-Bis(3,5-di-tert-butyl-4-hydroxyhydrocinnamoyl)hydrazine
Name: 3-(3,5-ditert-butyl-4-hydroxyphenyl)-N`-[3-(3,5-ditert-butyl-4-hydroxyphenyl)propanoyl]propanehydrazide
Formula: C34H52N2O4
Exact mass: 552.3927
SMILES: CC(C)(C)C1=CC(=CC(=C1O)C(C)(C)C)CCC(=O)NNC(=O)CCC2=CC(=C(C(=C2)C(C)(C)C)O)C(C)(C)C
InChI: InChI=1S/C34H52N2O4/c1-31(2,3)23-17-21(18-24(29(23)39)32(4,5)6)13-15-27(37)35-36-28(38)16-14-22-19-25(33(7,8)9)30(40)26(20-22)34(10,11)12/h17-20,39-40H,13-16H2,1-12H3,(H,35,37)(H,36,38)
Instrument: Exploris 240 Orbitrap Thermo Scientific
Instrument type: LC-ESI-QFT
Ms type: MS2
Ion mode: POSITIVE
Ionization: ESI
Fragmentation mode: HCD
Collision energy: 150 % (nominal)
Resolution: 17500
Column name: XBridge C18 3.5um, 2.1x50mm, Waters
Retention time: 14.769 min
Base peak: 553.3997
Precursor m/z: 553.4
Precursor type: [M+H]+
m/z	relative intensity	assigned
65.0386	262	C5H5+
77.0386	342	C6H5+
78.0464	61	C6H6+
79.0542	310	C6H7+
91.0542	999	C7H7+
95.0491	489	C6H7O+
103.0542	118	C8H7+
105.0448	281	C6H5N2+
105.0698	229	C8H9+
107.0491	818	C7H7O+
115.054	135	C9H7+
117.0697	86	C9H9+
119.0859	53	C9H11+
128.0617	124	C10H8+
129.07	74	C10H9+
202.0777	435	C16H10+
