Mass spectrum: AO626; LC-ESI-QFT; MS2; CE: 120%; R=17500; [M+H]+
Name: AO626
Name: 3,9-Bis(2,4-di-tert-butylphenoxy)-2,4,8,10-tetraoxa-3,9-diphosphaspiro[5.5]undecane
Name: 3,9-bis(2,4-ditert-butylphenoxy)-2,4,8,10-tetraoxa-3,9-diphosphaspiro[5.5]undecane
Formula: C33H50O6P2
Exact mass: 604.3083
SMILES: CC(C)(C)C1=CC(=C(C=C1)OP2OCC3(CO2)COP(OC3)OC4=C(C=C(C=C4)C(C)(C)C)C(C)(C)C)C(C)(C)C
InChI: InChI=1S/C33H50O6P2/c1-29(2,3)23-13-15-27(25(17-23)31(7,8)9)38-40-34-19-33(20-35-40)21-36-41(37-22-33)39-28-16-14-24(30(4,5)6)18-26(28)32(10,11)12/h13-18H,19-22H2,1-12H3
Instrument: Exploris 240 Orbitrap Thermo Scientific
Instrument type: LC-ESI-QFT
Ms type: MS2
Ion mode: POSITIVE
Ionization: ESI
Fragmentation mode: HCD
Collision energy: 120 % (nominal)
Resolution: 17500
Column name: XBridge C18 3.5um, 2.1x50mm, Waters
Retention time: 21.797 min
Base peak: 163.9764
Precursor m/z: 605.3155
Precursor type: [M+H]+
m/z	relative intensity	assigned
65.0385	211	C5H5+
67.0543	54	C5H7+
77.0385	95	C6H5+
78.0465	68	C6H6+
79.0543	130	C6H7+
83.0493	63	C5H7O+
91.0542	999	C7H7+
95.0492	242	C6H7O+
103.0543	139	C8H7+
104.0621	197	C8H8+
105.0697	175	C8H9+
115.0542	664	C9H7+
116.0621	89	C9H8+
117.0699	578	C9H9+
119.0856	77	C9H11+
128.062	377	C10H8+
129.0696	118	C10H9+
131.0493	60	C9H7O+
131.0854	97	C10H11+
132.0937	50	C10H12+
141.0698	226	C11H9+
144.0575	64	C10H8O+
147.0208	68	C5H8O3P+
152.0623	52	C12H8+
153.0699	61	C12H9+
