Mass spectrum: Curcumin; LC-ESI-QFT; MS2; CE: 180%; R=17500; [M+H]+
Name: Curcumin
Name: 1,7-Bis(4-hydroxy-3-methoxyphenyl)-1,6-heptadiene-3,5-dione
Name: 1,7-bis(4-hydroxy-3-methoxyphenyl)hepta-1,6-diene-3,5-dione
Formula: C21H20O6
Exact mass: 368.1259884
SMILES: COC1=C(C=CC(=C1)C=CC(=O)CC(=O)C=CC2=CC(=C(C=C2)O)OC)O
InChI: InChI=1S/C21H20O6/c1-26-20-11-14(5-9-18(20)24)3-7-16(22)13-17(23)8-4-15-6-10-19(25)21(12-15)27-2/h3-12,24-25H,13H2,1-2H3
Instrument: Exploris 240 Orbitrap Thermo Scientific
Instrument type: LC-ESI-QFT
Ms type: MS2
Ion mode: POSITIVE
Ionization: ESI
Fragmentation mode: HCD
Collision energy: 180 % (nominal)
Resolution: 17500
Column name: XBridge C18 3.5um, 2.1x50mm, Waters
Retention time: 9.566 min
Base peak: 369.1332
Precursor m/z: 369.1333
Precursor type: [M+H]+
m/z	relative intensity	assigned
50.0151	85	C4H2+
51.0229	146	C4H3+
52.0308	134	C4H4+
53.002	10	C3HO+
53.0385	57	C4H5+
55.0177	18	C3H3O+
62.0152	78	C5H2+
63.0229	999	C5H3+
65.0385	68	C5H5+
66.0463	33	C5H6+
68.9971	25	C3HO2+
75.0229	14	C6H3+
76.0304	18	C6H4+
77.0386	161	C6H5+
78.0464	311	C6H6+
89.0386	663	C7H5+
91.0543	27	C7H7+
94.0414	26	C6H6O+
95.0489	79	C6H7O+
102.0467	10	C8H6+
115.0547	27	C9H7+
118.0412	13	C8H6O+
139.0539	8	C11H7+
152.0621	43	C12H8+
