Mass spectrum: Hexadecyl gallate; LC-ESI-QFT; MS2; CE: 45%; R=17500; [M-H]-
Name: Hexadecyl gallate
Name: Cetyl gallate
Name: hexadecyl 3,4,5-trihydroxybenzoate
Formula: C23H38O5
Exact mass: 394.271924316
SMILES: CCCCCCCCCCCCCCCCOC(=O)C1=CC(=C(C(=C1)O)O)O
InChI: InChI=1S/C23H38O5/c1-2-3-4-5-6-7-8-9-10-11-12-13-14-15-16-28-23(27)19-17-20(24)22(26)21(25)18-19/h17-18,24-26H,2-16H2,1H3
Instrument: Exploris 240 Orbitrap Thermo Scientific
Instrument type: LC-ESI-QFT
Ms type: MS2
Ion mode: NEGATIVE
Ionization: ESI
Fragmentation mode: HCD
Collision energy: 45 % (nominal)
Resolution: 17500
Column name: XBridge C18 3.5um, 2.1x50mm, Waters
Retention time: 17.946 min
Base peak: 393.2644
Precursor m/z: 393.2646
Precursor type: [M-H]-
m/z	relative intensity	assigned
82.0062	2	C4H2O2-
111.0089	8	C5H3O3-
123.0089	5	C6H3O3-
124.0166	268	C6H4O3-
125.0244	113	C6H5O3-
127.0039	2	C5H3O4-
136.9878	6	C6HO4-
139.0035	8	C6H3O4-
140.0112	16	C6H4O4-
151.0036	6	C7H3O4-
168.0065	90	C7H4O5-
169.0142	191	C7H5O5-
393.2647	999	C23H37O5-
