Mass spectrum: UV9; LC-ESI-QFT; MS2; CE: 15%; R=17500; [M+H]+
Name: UV9
Name: 2-(benzotriazol-2-yl)-4-methyl-6-prop-2-enylphenol
Formula: C16H15N3O
Exact mass: 265.1215121
SMILES: CC1=CC(=C(C(=C1)N2N=C3C=CC=CC3=N2)O)CC=C
InChI: InChI=1S/C16H15N3O/c1-3-6-12-9-11(2)10-15(16(12)20)19-17-13-7-4-5-8-14(13)18-19/h3-5,7-10,20H,1,6H2,2H3
Instrument: Exploris 240 Orbitrap Thermo Scientific
Instrument type: LC-ESI-QFT
Ms type: MS2
Ion mode: POSITIVE
Ionization: ESI
Fragmentation mode: HCD
Collision energy: 15 % (nominal)
Resolution: 17500
Column name: XBridge C18 3.5um, 2.1x50mm, Waters
Retention time: 16.910 min
Base peak: 266.1289
Precursor m/z: 266.1288
Precursor type: [M+H]+
m/z	relative intensity	assigned
147.0805	4	C10H11O+
266.1289	999	C16H16N3O+
