Mass spectrum: AO1081; LC-ESI-QFT; MS2; CE: 75%; R=17500; [M-H]-
Name: AO1081
Name: 2,2`-Thiobis(4-methyl-6-tert-butylphenol)
Name: 2-tert-butyl-6-(3-tert-butyl-2-hydroxy-5-methylphenyl)sulfanyl-4-methylphenol
Formula: C22H30O2S
Exact mass: 358.1966512
SMILES: CC1=CC(=C(C(=C1)SC2=CC(=CC(=C2O)C(C)(C)C)C)O)C(C)(C)C
InChI: InChI=1S/C22H30O2S/c1-13-9-15(21(3,4)5)19(23)17(11-13)25-18-12-14(2)10-16(20(18)24)22(6,7)8/h9-12,23-24H,1-8H3
Instrument: Exploris 240 Orbitrap Thermo Scientific
Instrument type: LC-ESI-QFT
Ms type: MS2
Ion mode: NEGATIVE
Ionization: ESI
Fragmentation mode: HCD
Collision energy: 75 % (nominal)
Resolution: 17500
Column name: XBridge C18 3.5um, 2.1x50mm, Waters
Retention time: 17.101 min
Base peak: 357.1892
Precursor m/z: 357.1894
Precursor type: [M-H]-
m/z	relative intensity	assigned
107.0504	9	C7H7O-
119.0866	9	C9H11-
138.0144	295	C7H6OS-
147.082	10	C10H11O-
149.0972	24	C10H13O-
151.0225	57	C8H7OS-
152.0299	71	C8H8OS-
153.0017	12	C7H5O2S-
163.1128	999	C11H15O-
164.03	36	C9H8OS-
177.0381	8	C10H9OS-
178.0458	48	C10H10OS-
179.0536	952	C10H11OS-
193.0692	623	C11H13OS-
194.0771	288	C11H14OS-
