Mass spectrum: (-)-Epigallocatechin Gallate; LC-ESI-QFT; MS2; CE: 120%; R=17500; [M-H]-
Name: (-)-Epigallocatechin Gallate
Name: Tea, ext.
Name: [5,7-dihydroxy-2-(3,4,5-trihydroxyphenyl)-3,4-dihydro-2H-chromen-3-yl] 3,4,5-trihydroxybenzoate
Formula: C22H18O11
Exact mass: 458.084911396
SMILES: C1C(C(OC2=CC(=CC(=C21)O)O)C3=CC(=C(C(=C3)O)O)O)OC(=O)C4=CC(=C(C(=C4)O)O)O
InChI: InChI=1S/C22H18O11/c23-10-5-12(24)11-7-18(33-22(31)9-3-15(27)20(30)16(28)4-9)21(32-17(11)6-10)8-1-13(25)19(29)14(26)2-8/h1-6,18,21,23-30H,7H2
Instrument: Exploris 240 Orbitrap Thermo Scientific
Instrument type: LC-ESI-QFT
Ms type: MS2
Ion mode: NEGATIVE
Ionization: ESI
Fragmentation mode: HCD
Collision energy: 120 % (nominal)
Resolution: 17500
Column name: XBridge C18 3.5um, 2.1x50mm, Waters
Retention time: 3.421 min
Base peak: 457.0777
Precursor m/z: 457.0776
Precursor type: [M-H]-
m/z	relative intensity	assigned
51.0242	85	C4H3-
53.0034	55	C3HO-
57.0346	999	C3H5O-
65.0034	65	C4HO-
67.019	253	C4H3O-
69.0346	615	C4H5O-
77.0395	75	C6H5-
78.0113	46	C5H2O-
79.0189	561	C5H3O-
81.0345	220	C5H5O-
83.014	215	C4H3O2-
93.0347	84	C6H5O-
95.014	206	C5H3O2-
95.0504	119	C6H7O-
97.0294	276	C5H5O2-
105.0349	38	C7H5O-
107.0138	242	C6H3O2-
108.0217	40	C6H4O2-
109.0296	335	C6H5O2-
121.0293	50	C7H5O2-
123.0084	135	C6H3O3-
124.0164	556	C6H4O3-
125.0243	661	C6H5O3-
132.0213	45	C8H4O2-
137.025	38	C7H5O3-
