Mass spectrum: Taxifolin; LC-ESI-QFT; MS2; CE: 60%; R=17500; [M+H]+
Name: Taxifolin
Name: 3,5,7,3',4'-Pentahydroxyflavanone
Name: 2-(3,4-dihydroxyphenyl)-3,5,7-trihydroxy-2,3-dihydrochromen-4-one
Formula: C15H12O7
Exact mass: 304.0583027
SMILES: C1=CC(=C(C=C1C2C(C(=O)C3=C(C=C(C=C3O2)O)O)O)O)O
InChI: InChI=1S/C15H12O7/c16-7-4-10(19)12-11(5-7)22-15(14(21)13(12)20)6-1-2-8(17)9(18)3-6/h1-5,14-19,21H
Instrument: Exploris 240 Orbitrap Thermo Scientific
Instrument type: LC-ESI-QFT
Ms type: MS2
Ion mode: POSITIVE
Ionization: ESI
Fragmentation mode: HCD
Collision energy: 60 % (nominal)
Resolution: 17500
Column name: XBridge C18 3.5um, 2.1x50mm, Waters
Retention time: 4.381 min
Base peak: 305.0653
Precursor m/z: 305.0656
Precursor type: [M+H]+
m/z	relative intensity	assigned
55.0179	13	C3H3O+
65.0386	18	C5H5+
67.018	12	C4H3O+
67.0542	20	C5H7+
68.9971	39	C3HO2+
93.0335	24	C6H5O+
95.0491	73	C6H7O+
105.0333	19	C7H5O+
111.044	81	C6H7O2+
121.0283	144	C7H5O2+
123.044	978	C7H7O2+
133.0284	56	C8H5O2+
135.0442	56	C8H7O2+
137.0231	28	C7H5O3+
139.0388	93	C7H7O3+
145.0647	14	C10H9O+
147.0442	25	C9H7O2+
149.0233	999	C8H5O3+
150.0312	34	C8H6O3+
151.0386	25	C8H7O3+
153.0182	991	C7H5O4+
157.0643	72	C11H9O+
161.0232	67	C9H5O3+
161.0602	13	C10H9O2+
163.0384	23	C9H7O3+
167.034	74	C8H7O4+
175.0756	31	C11H11O2+
185.0596	166	C12H9O2+
195.0291	36	C9H7O5+
203.0696	14	C12H11O3+
213.0544	261	C13H9O3+
231.0652	505	C13H11O4+
241.0497	114	C14H9O4+
258.0527	39	C14H10O5+
259.0605	14	C14H11O5+
