Mass spectrum: Taxifolin; LC-ESI-QFT; MS2; CE: 90%; R=17500; [M-H]-
Name: Taxifolin
Name: 3,5,7,3`,4`-Pentahydroxyflavanone
Name: 2-(3,4-dihydroxyphenyl)-3,5,7-trihydroxy-2,3-dihydrochromen-4-one
Formula: C15H12O7
Exact mass: 304.058302724
SMILES: C1=CC(=C(C=C1C2C(C(=O)C3=C(C=C(C=C3O2)O)O)O)O)O
InChI: InChI=1S/C15H12O7/c16-7-4-10(19)12-11(5-7)22-15(14(21)13(12)20)6-1-2-8(17)9(18)3-6/h1-5,14-19,21H
Instrument: Exploris 240 Orbitrap Thermo Scientific
Instrument type: LC-ESI-QFT
Ms type: MS2
Ion mode: NEGATIVE
Ionization: ESI
Fragmentation mode: HCD
Collision energy: 90 % (nominal)
Resolution: 17500
Column name: XBridge C18 3.5um, 2.1x50mm, Waters
Retention time: 4.371 min
Base peak: 303.0509
Precursor m/z: 303.051
Precursor type: [M-H]-
m/z	relative intensity	assigned
57.0346	999	C3H5O-
63.024	89	C5H3-
65.0033	223	C4HO-
67.019	20	C4H3O-
68.9983	15	C3HO2-
81.0345	42	C5H5O-
82.0062	8	C4H2O2-
83.0138	246	C4H3O2-
93.0346	52	C6H5O-
95.0502	12	C6H7O-
96.0216	69	C5H4O2-
105.0346	28	C7H5O-
107.0138	53	C6H3O2-
108.0217	24	C6H4O2-
109.0297	41	C6H5O2-
117.0347	9	C8H5O-
119.0505	19	C8H7O-
121.0292	60	C7H5O2-
122.0374	87	C7H6O2-
123.0452	177	C7H7O2-
124.0166	52	C6H4O3-
125.0244	310	C6H5O3-
129.0349	16	C9H5O-
133.0293	21	C8H5O2-
139.04	19	C7H7O3-
143.0504	15	C10H7O-
145.0293	50	C9H5O2-
146.0372	32	C9H6O2-
147.0449	36	C9H7O2-
149.0246	32	C8H5O3-
150.0322	146	C8H6O3-
151.0034	31	C7H3O4-
151.0399	24	C8H7O3-
152.0113	17	C7H4O4-
159.0452	20	C10H7O2-
171.0457	15	C11H7O2-
174.0323	45	C10H6O3-
175.0402	30	C10H7O3-
187.0406	13	C11H7O3-
188.0487	11	C11H8O3-
