Mass spectrum: Taxifolin; LC-ESI-QFT; MS2; CE: 45%; R=17500; [M+H]+
Name: Taxifolin
Name: 3,5,7,3',4'-Pentahydroxyflavanone
Name: 2-(3,4-dihydroxyphenyl)-3,5,7-trihydroxy-2,3-dihydrochromen-4-one
Formula: C15H12O7
Exact mass: 304.0583027
SMILES: C1=CC(=C(C=C1C2C(C(=O)C3=C(C=C(C=C3O2)O)O)O)O)O
InChI: InChI=1S/C15H12O7/c16-7-4-10(19)12-11(5-7)22-15(14(21)13(12)20)6-1-2-8(17)9(18)3-6/h1-5,14-19,21H
Instrument: Exploris 240 Orbitrap Thermo Scientific
Instrument type: LC-ESI-QFT
Ms type: MS2
Ion mode: POSITIVE
Ionization: ESI
Fragmentation mode: HCD
Collision energy: 45 % (nominal)
Resolution: 17500
Column name: XBridge C18 3.5um, 2.1x50mm, Waters
Retention time: 4.381 min
Base peak: 305.0653
Precursor m/z: 305.0656
Precursor type: [M+H]+
m/z	relative intensity	assigned
95.0493	17	C6H7O+
111.0442	50	C6H7O2+
121.0285	10	C7H5O2+
123.044	693	C7H7O2+
127.0385	14	C6H7O3+
133.0284	23	C8H5O2+
135.044	25	C8H7O2+
139.0391	50	C7H7O3+
149.0233	999	C8H5O3+
150.0315	23	C8H6O3+
151.039	58	C8H7O3+
153.0182	951	C7H5O4+
161.0234	109	C9H5O3+
167.0338	181	C8H7O4+
179.034	21	C9H7O4+
185.0597	33	C12H9O2+
195.029	83	C9H7O5+
197.0602	8	C13H9O2+
203.0335	15	C11H7O4+
213.0545	112	C13H9O3+
231.0652	919	C13H11O4+
241.0494	111	C14H9O4+
258.0519	29	C14H10O5+
259.0603	202	C14H11O5+
287.0558	59	C15H11O6+
