Mass spectrum: AO4703; LC-ESI-QFT; MS2; CE: 75%; R=17500; [M+H]+
Name: AO4703
Name: 2,6-ditert-butyl-4-[(dimethylamino)methyl]phenol
Formula: C17H29NO
Exact mass: 263.2249145
SMILES: CC(C)(C)C1=CC(=CC(=C1O)C(C)(C)C)CN(C)C
InChI: InChI=1S/C17H29NO/c1-16(2,3)13-9-12(11-18(7)8)10-14(15(13)19)17(4,5)6/h9-10,19H,11H2,1-8H3
Instrument: Exploris 240 Orbitrap Thermo Scientific
Instrument type: LC-ESI-QFT
Ms type: MS2
Ion mode: POSITIVE
Ionization: ESI
Fragmentation mode: HCD
Collision energy: 75 % (nominal)
Resolution: 17500
Column name: XBridge C18 3.5um, 2.1x50mm, Waters
Retention time: 7.272 min
Base peak: 264.232
Precursor m/z: 264.2322
Precursor type: [M+H]+
m/z	relative intensity	assigned
55.0543	35	C4H7+
57.0699	13	C4H9+
67.054	38	C5H7+
69.07	43	C5H9+
79.0543	26	C6H7+
81.0698	65	C6H9+
91.0541	18	C7H7+
93.0699	37	C7H9+
95.0856	18	C7H11+
105.07	64	C8H9+
109.0649	31	C7H9O+
119.0856	170	C9H11+
121.1012	205	C9H13+
123.0807	22	C8H11O+
133.1012	172	C10H13+
135.0806	20	C9H11O+
135.117	28	C10H15+
145.1014	34	C11H13+
147.1171	54	C11H15+
157.1014	15	C12H13+
159.1164	13	C12H15+
160.125	24	C12H16+
161.0963	60	C11H13O+
161.1325	152	C12H17+
170.1093	29	C13H14+
173.0964	18	C12H13O+
175.1481	67	C13H19+
185.1326	29	C14H17+
187.1118	53	C13H15O+
188.1197	60	C13H16O+
203.1431	999	C14H19O+
219.1744	790	C15H23O+
