Mass spectrum: BHT-OH; LC-ESI-QFT; MS2; CE: 150%; R=17500; [M+H]+
Name: BHT-OH
Name: 2,6-ditert-butyl-4-hydroxy-4-methylcyclohexa-2,5-dien-1-one
Formula: C15H24O2
Exact mass: 236.17763
SMILES: CC1(C=C(C(=O)C(=C1)C(C)(C)C)C(C)(C)C)O
InChI: InChI=1S/C15H24O2/c1-13(2,3)10-8-15(7,17)9-11(12(10)16)14(4,5)6/h8-9,17H,1-7H3
Instrument: Exploris 240 Orbitrap Thermo Scientific
Instrument type: LC-ESI-QFT
Ms type: MS2
Ion mode: POSITIVE
Ionization: ESI
Fragmentation mode: HCD
Collision energy: 150 % (nominal)
Resolution: 17500
Column name: XBridge C18 3.5um, 2.1x50mm, Waters
Retention time: 10.618 min
Base peak: 237.1847
Precursor m/z: 237.1849
Precursor type: [M+H]+
m/z	relative intensity	assigned
51.023	201	C4H3+
53.0387	286	C4H5+
55.0542	955	C4H7+
57.0699	999	C4H9+
59.0494	117	C3H7O+
65.0386	233	C5H5+
67.054	152	C5H7+
77.0386	820	C6H5+
79.0543	484	C6H7+
91.054	331	C7H7+
95.049	373	C6H7O+
107.0489	137	C7H7O+
