Mass spectrum: Irganox 1222; LC-ESI-QFT; MS2; CE: 90%; R=17500; [M-H]-
Name: Irganox 1222
Name: Diethyl ((3,5-bis(1,1-dimethylethyl)-4-hydroxyphenyl)methyl)phosphonate
Name: 2,6-ditert-butyl-4-(diethoxyphosphorylmethyl)phenol
Formula: C19H33O4P
Exact mass: 356.211646166
SMILES: CCOP(=O)(CC1=CC(=C(C(=C1)C(C)(C)C)O)C(C)(C)C)OCC
InChI: InChI=1S/C19H33O4P/c1-9-22-24(21,23-10-2)13-14-11-15(18(3,4)5)17(20)16(12-14)19(6,7)8/h11-12,20H,9-10,13H2,1-8H3
Instrument: Exploris 240 Orbitrap Thermo Scientific
Instrument type: LC-ESI-QFT
Ms type: MS2
Ion mode: NEGATIVE
Ionization: ESI
Fragmentation mode: HCD
Collision energy: 90 % (nominal)
Resolution: 17500
Column name: XBridge C18 3.5um, 2.1x50mm, Waters
Retention time: 13.032 min
Base peak: 162.8391
Precursor m/z: 355.2044
Precursor type: [M-H]-
m/z	relative intensity	assigned
62.9641	704	O2P-
78.959	999	O3P-
