Mass spectrum: Cis-Dihydroanatoxin-A; LC-ESI-QFT; MS2; CE: 60%; R=17500; [M+H]+
Name: Cis-Dihydroanatoxin-A
Name: 1-[(1R,2S,6R)-9-azabicyclo[4.2.1]nonan-2-yl]ethanone
Formula: C10H17NO
Exact mass: 167.1310142
SMILES: CC(=O)[C@H]1CCC[C@@H]2CC[C@H]1N2
InChI: InChI=1S/C10H17NO/c1-7(12)9-4-2-3-8-5-6-10(9)11-8/h8-11H,2-6H2,1H3/t8-,9-,10-/m1/s1
Instrument: Exploris 240 Orbitrap Thermo Scientific
Instrument type: LC-ESI-QFT
Ms type: MS2
Ion mode: POSITIVE
Ionization: ESI
Fragmentation mode: HCD
Collision energy: 60 % (nominal)
Resolution: 17500
Column name: XBridge C18 3.5um, 2.1x50mm, Waters
Retention time: 1.752 min
Base peak: 168.1382
Precursor m/z: 168.1383
Precursor type: [M+H]+
m/z	relative intensity	assigned
43.0178	166	C2H3O+
44.0494	15	C2H6N+
55.0543	6	C4H7+
56.0495	201	C3H6N+
59.0492	9	C3H7O+
67.0543	47	C5H7+
70.0652	25	C4H8N+
71.049	14	C4H7O+
72.0444	11	C3H6NO+
79.0541	19	C6H7+
80.0493	17	C5H6N+
81.0699	44	C6H9+
84.0807	15	C5H10N+
91.0541	33	C7H7+
93.0698	89	C7H9+
105.0698	19	C8H9+
107.0855	41	C8H11+
110.0964	37	C7H12N+
125.096	64	C8H13O+
133.1009	42	C10H13+
150.128	23	C10H16N+
168.1383	999	C10H18NO+
