Mass spectrum: UV9; LC-ESI-QFT; MS2; CE: 150%; R=17500; [M+H]+
Name: UV9
Name: 2-(benzotriazol-2-yl)-4-methyl-6-prop-2-enylphenol
Formula: C16H15N3O
Exact mass: 265.1215121
SMILES: CC1=CC(=C(C(=C1)N2N=C3C=CC=CC3=N2)O)CC=C
InChI: InChI=1S/C16H15N3O/c1-3-6-12-9-11(2)10-15(16(12)20)19-17-13-7-4-5-8-14(13)18-19/h3-5,7-10,20H,1,6H2,2H3
Instrument: Exploris 240 Orbitrap Thermo Scientific
Instrument type: LC-ESI-QFT
Ms type: MS2
Ion mode: POSITIVE
Ionization: ESI
Fragmentation mode: HCD
Collision energy: 150 % (nominal)
Resolution: 17500
Column name: XBridge C18 3.5um, 2.1x50mm, Waters
Retention time: 16.910 min
Base peak: 266.1289
Precursor m/z: 266.1288
Precursor type: [M+H]+
m/z	relative intensity	assigned
50.0151	29	C4H2+
51.0229	148	C4H3+
52.0308	51	C4H4+
53.0385	171	C4H5+
63.023	47	C5H3+
65.0386	999	C5H5+
66.0465	57	C5H6+
77.0386	244	C6H5+
78.0464	213	C6H6+
79.0418	40	C5H5N+
79.0541	85	C6H7+
80.0495	54	C5H6N+
89.0385	66	C7H5+
90.0464	29	C7H6+
91.0543	713	C7H7+
92.0496	32	C6H6N+
95.0491	183	C6H7O+
102.0465	45	C8H6+
103.0543	211	C8H7+
104.0622	81	C8H8+
105.0447	256	C6H5N2+
115.0544	238	C9H7+
117.0574	53	C8H7N+
117.0695	32	C9H9+
127.0542	22	C10H7+
128.0618	40	C10H8+
131.0493	55	C9H7O+
139.0539	17	C11H7+
152.0619	37	C12H8+
166.0653	28	C12H8N+
167.0734	53	C12H9N+
