Mass spectrum: 3,5-Di-Tert-Butyl-4-Hydroxybenzoic Acid; LC-ESI-QFT; MS2; CE: 45%; R=17500; [M+H]+
Name: 3,5-Di-Tert-Butyl-4-Hydroxybenzoic Acid
Name: 3,5-ditert-butyl-4-hydroxybenzoic acid
Formula: C15H22O3
Exact mass: 250.1568946
SMILES: CC(C)(C)C1=CC(=CC(=C1O)C(C)(C)C)C(=O)O
InChI: InChI=1S/C15H22O3/c1-14(2,3)10-7-9(13(17)18)8-11(12(10)16)15(4,5)6/h7-8,16H,1-6H3,(H,17,18)
Instrument: Exploris 240 Orbitrap Thermo Scientific
Instrument type: LC-ESI-QFT
Ms type: MS2
Ion mode: POSITIVE
Ionization: ESI
Fragmentation mode: HCD
Collision energy: 45 % (nominal)
Resolution: 17500
Column name: XBridge C18 3.5um, 2.1x50mm, Waters
Retention time: 11.027 min
Base peak: 251.1641
Precursor m/z: 251.1642
Precursor type: [M+H]+
m/z	relative intensity	assigned
57.0699	999	C4H9+
95.0494	13	C6H7O+
139.0391	189	C7H7O3+
177.0912	22	C11H13O2+
195.1017	663	C11H15O3+
233.1539	20	C15H21O2+
251.1643	183	C15H23O3+
