Mass spectrum: Tempo; LC-ESI-QFT; MS2; CE: 60%; R=17500; [M+H]+
Name: Tempo
Name: 2,2,6,6-Tetramethyl-1-piperidinyloxy
Formula: C9H18NO
Exact mass: 156.138839198
SMILES: CC1(CCCC(N1[O])(C)C)C
InChI: InChI=1S/C9H18NO/c1-8(2)6-5-7-9(3,4)10(8)11/h5-7H2,1-4H3
Instrument: Exploris 240 Orbitrap Thermo Scientific
Instrument type: LC-ESI-QFT
Ms type: MS2
Ion mode: POSITIVE
Ionization: ESI
Fragmentation mode: HCD
Collision energy: 60 % (nominal)
Resolution: 17500
Column name: XBridge C18 3.5um, 2.1x50mm, Waters
Retention time: 7.067 min
Base peak: 142.1225
Precursor m/z: 157.1461
Precursor type: [M+H]+
m/z	relative intensity	assigned
43.0178	2	C2H3O+
55.0542	6	C4H7+
56.0495	1	C3H6N+
57.0699	1	C4H9+
67.0542	4	C5H7+
69.0698	46	C5H9+
72.0805	2	C4H10N+
74.06	10	C3H8NO+
81.0698	3	C6H9+
82.0651	2	C5H8N+
83.049	2	C5H7O+
83.0853	2	C6H11+
84.0809	7	C5H10N+
86.06	22	C4H8NO+
96.0807	3	C6H10N+
109.1011	93	C8H13+
124.1117	4	C8H14N+
125.1199	2	C8H15N+
142.1225	999	C8H16NO+
