Mass spectrum: AO1680; LC-ESI-QFT; MS2; CE: 15%; R=17500; [M+H]+
Name: AO1680
Name: Tris(2,4-ditert-butylphenyl)phosphate
Name: tris(2,4-ditert-butylphenyl) phosphate
Formula: C42H63O4P
Exact mass: 662.446397126
SMILES: CC(C)(C)C1=CC(=C(C=C1)OP(=O)(OC2=C(C=C(C=C2)C(C)(C)C)C(C)(C)C)OC3=C(C=C(C=C3)C(C)(C)C)C(C)(C)C)C(C)(C)C
InChI: InChI=1S/C42H63O4P/c1-37(2,3)28-19-22-34(31(25-28)40(10,11)12)44-47(43,45-35-23-20-29(38(4,5)6)26-32(35)41(13,14)15)46-36-24-21-30(39(7,8)9)27-33(36)42(16,17)18/h19-27H,1-18H3
Instrument: Exploris 240 Orbitrap Thermo Scientific
Instrument type: LC-ESI-QFT
Ms type: MS2
Ion mode: POSITIVE
Ionization: ESI
Fragmentation mode: HCD
Collision energy: 15 % (nominal)
Resolution: 17500
Column name: XBridge C18 3.5um, 2.1x50mm, Waters
Retention time: 22.960 min
Base peak: 685.4357
Precursor m/z: 663.4537
Precursor type: [M+H]+
m/z	relative intensity	assigned
551.3291	44	C34H48O4P+
607.391	343	C38H56O4P+
663.4534	999	C42H64O4P+
