Mass spectrum: 77PPD; LC-ESI-QFT; MS2; CE: 90%; R=17500; [M+H]+
Name: 77PPD
Name: 1-N,4-N-bis(5-methylhexan-2-yl)benzene-1,4-diamine
Formula: C20H36N2
Exact mass: 304.2878492
SMILES: CC(C)CCC(C)NC1=CC=C(C=C1)NC(C)CCC(C)C
InChI: InChI=1S/C20H36N2/c1-15(2)7-9-17(5)21-19-11-13-20(14-12-19)22-18(6)10-8-16(3)4/h11-18,21-22H,7-10H2,1-6H3
Instrument: Exploris 240 Orbitrap Thermo Scientific
Instrument type: LC-ESI-QFT
Ms type: MS2
Ion mode: POSITIVE
Ionization: ESI
Fragmentation mode: HCD
Collision energy: 90 % (nominal)
Resolution: 17500
Column name: XBridge C18 3.5um, 2.1x50mm, Waters
Retention time: 12.642 min
Base peak: 132.9582
Precursor m/z: 305.2951
Precursor type: [M+H]+
m/z	relative intensity	assigned
55.0542	25	C4H7+
57.0698	43	C4H9+
91.0543	12	C7H7+
92.0495	46	C6H6N+
93.0573	134	C6H7N+
107.0602	76	C6H7N2+
108.0682	44	C6H8N2+
108.0809	53	C7H10N+
109.0761	30	C6H9N2+
118.065	166	C8H8N+
119.0726	11	C8H9N+
121.076	32	C7H9N2+
134.0837	28	C8H10N2+
135.0916	999	C8H11N2+
191.1542	52	C12H19N2+
