Mass spectrum: N-6-methyl-2-deoxyadenosine; LC-ESI-QFT; MS2; CE: 180%; R=17500; [M+H]+
Name: N-6-methyl-2-deoxyadenosine
Formula: C11H15N5O3
Exact mass: 265.1174894
SMILES: CNC1=C2C(=NC=N1)N(C=N2)C3CC(C(O3)CO)O
InChI: InChI=1S/C11H15N5O3/c1-12-10-9-11(14-4-13-10)16(5-15-9)8-2-6(18)7(3-17)19-8/h4-8,17-18H,2-3H2,1H3,(H,12,13,14)
Instrument: Exploris 240 Orbitrap Thermo Scientific
Instrument type: LC-ESI-QFT
Ms type: MS2
Ion mode: POSITIVE
Ionization: ESI
Fragmentation mode: HCD
Collision energy: 180 % (nominal)
Resolution: 17500
Column name: XBridge C18 3.5um, 2.1x50mm, Waters
Retention time: 2.046 min
Base peak: 266.1245
Precursor m/z: 266.1248
Precursor type: [M+H]+
m/z	relative intensity	assigned
52.0181	202	C3H2N+
53.0385	86	C4H5+
54.0213	389	C2H2N2+
55.029	445	C2H3N2+
56.037	75	C2H4N2+
57.0446	93	C2H5N2+
65.0134	153	C3HN2+
66.0212	244	C3H2N2+
67.0291	284	C3H3N2+
69.0335	63	C4H5O+
69.0448	166	C3H5N2+
79.0292	208	C4H3N2+
81.0322	284	C3H3N3+
82.0398	81	C3H4N3+
92.0241	116	C4H2N3+
94.0401	118	C4H4N3+
108.043	999	C4H4N4+
119.0349	69	C5H3N4+
