Mass spectrum: BHT-OH; LC-ESI-QFT; MS2; CE: 120%; R=17500; [M+H]+
Name: BHT-OH
Name: 2,6-ditert-butyl-4-hydroxy-4-methylcyclohexa-2,5-dien-1-one
Formula: C15H24O2
Exact mass: 236.17763
SMILES: CC1(C=C(C(=O)C(=C1)C(C)(C)C)C(C)(C)C)O
InChI: InChI=1S/C15H24O2/c1-13(2,3)10-8-15(7,17)9-11(12(10)16)14(4,5)6/h8-9,17H,1-7H3
Instrument: Exploris 240 Orbitrap Thermo Scientific
Instrument type: LC-ESI-QFT
Ms type: MS2
Ion mode: POSITIVE
Ionization: ESI
Fragmentation mode: HCD
Collision energy: 120 % (nominal)
Resolution: 17500
Column name: XBridge C18 3.5um, 2.1x50mm, Waters
Retention time: 10.618 min
Base peak: 237.1847
Precursor m/z: 237.1849
Precursor type: [M+H]+
m/z	relative intensity	assigned
53.0386	35	C4H5+
55.0542	532	C4H7+
57.0699	999	C4H9+
59.0492	41	C3H7O+
67.0542	101	C5H7+
77.0385	194	C6H5+
79.0542	248	C6H7+
83.0491	105	C5H7O+
91.0543	109	C7H7+
95.0489	74	C6H7O+
95.0856	60	C7H11+
105.07	107	C8H9+
107.0493	69	C7H7O+
