Mass spectrum: 77PPD; LC-ESI-QFT; MS2; CE: 180%; R=17500; [M+H]+
Name: 77PPD
Name: 1-N,4-N-bis(5-methylhexan-2-yl)benzene-1,4-diamine
Formula: C20H36N2
Exact mass: 304.2878492
SMILES: CC(C)CCC(C)NC1=CC=C(C=C1)NC(C)CCC(C)C
InChI: InChI=1S/C20H36N2/c1-15(2)7-9-17(5)21-19-11-13-20(14-12-19)22-18(6)10-8-16(3)4/h11-18,21-22H,7-10H2,1-6H3
Instrument: Exploris 240 Orbitrap Thermo Scientific
Instrument type: LC-ESI-QFT
Ms type: MS2
Ion mode: POSITIVE
Ionization: ESI
Fragmentation mode: HCD
Collision energy: 180 % (nominal)
Resolution: 17500
Column name: XBridge C18 3.5um, 2.1x50mm, Waters
Retention time: 12.642 min
Base peak: 132.9582
Precursor m/z: 305.2951
Precursor type: [M+H]+
m/z	relative intensity	assigned
53.0386	94	C4H5+
65.0386	596	C5H5+
66.0464	295	C5H6+
80.0494	458	C5H6N+
91.0541	133	C7H7+
92.0492	153	C6H6N+
93.0573	999	C6H7N+
106.0651	176	C7H8N+
107.0604	255	C6H7N2+
108.0683	24	C6H8N2+
117.0574	62	C8H7N+
118.0654	49	C8H8N+
119.0605	30	C7H7N2+
133.0763	55	C8H9N2+
