Mass spectrum: (-)-Epigallocatechin Gallate; LC-ESI-QFT; MS2; CE: 45%; R=17500; [M-H]-
Name: (-)-Epigallocatechin Gallate
Name: Tea, ext.
Name: [5,7-dihydroxy-2-(3,4,5-trihydroxyphenyl)-3,4-dihydro-2H-chromen-3-yl] 3,4,5-trihydroxybenzoate
Formula: C22H18O11
Exact mass: 458.084911396
SMILES: C1C(C(OC2=CC(=CC(=C21)O)O)C3=CC(=C(C(=C3)O)O)O)OC(=O)C4=CC(=C(C(=C4)O)O)O
InChI: InChI=1S/C22H18O11/c23-10-5-12(24)11-7-18(33-22(31)9-3-15(27)20(30)16(28)4-9)21(32-17(11)6-10)8-1-13(25)19(29)14(26)2-8/h1-6,18,21,23-30H,7H2
Instrument: Exploris 240 Orbitrap Thermo Scientific
Instrument type: LC-ESI-QFT
Ms type: MS2
Ion mode: NEGATIVE
Ionization: ESI
Fragmentation mode: HCD
Collision energy: 45 % (nominal)
Resolution: 17500
Column name: XBridge C18 3.5um, 2.1x50mm, Waters
Retention time: 3.421 min
Base peak: 457.0777
Precursor m/z: 457.0776
Precursor type: [M-H]-
m/z	relative intensity	assigned
57.0344	10	C3H5O-
81.0345	7	C5H5O-
97.0294	2	C5H5O2-
111.0452	4	C6H7O2-
123.0086	7	C6H3O3-
124.0167	10	C6H4O3-
125.0244	647	C6H5O3-
137.0243	22	C7H5O3-
139.0402	12	C7H7O3-
149.0246	4	C8H5O3-
161.0245	64	C9H5O3-
165.0196	23	C8H5O4-
167.035	31	C8H7O4-
169.0142	999	C7H5O5-
177.056	9	C10H9O3-
179.0352	19	C9H7O4-
193.0142	21	C9H5O5-
201.0563	5	C12H9O3-
203.0347	3	C11H7O4-
219.0669	17	C12H11O4-
221.046	9	C11H9O5-
243.0667	3	C14H11O4-
305.0673	15	C15H13O7-
