Mass spectrum: Naringenin; LC-ESI-QFT; MS2; CE: 75%; R=17500; [M-H]-
Name: Naringenin
Name: (+-)-Naringenin
Name: 5,7-dihydroxy-2-(4-hydroxyphenyl)-2,3-dihydrochromen-4-one
Formula: C15H12O5
Exact mass: 272.068473484
SMILES: C1C(OC2=CC(=CC(=C2C1=O)O)O)C3=CC=C(C=C3)O
InChI: InChI=1S/C15H12O5/c16-9-3-1-8(2-4-9)13-7-12(19)15-11(18)5-10(17)6-14(15)20-13/h1-6,13,16-18H,7H2
Instrument: Exploris 240 Orbitrap Thermo Scientific
Instrument type: LC-ESI-QFT
Ms type: MS2
Ion mode: NEGATIVE
Ionization: ESI
Fragmentation mode: HCD
Collision energy: 75 % (nominal)
Resolution: 17500
Column name: XBridge C18 3.5um, 2.1x50mm, Waters
Retention time: 6.319 min
Base peak: 271.0611
Precursor m/z: 271.0612
Precursor type: [M-H]-
m/z	relative intensity	assigned
63.024	291	C5H3-
65.0033	428	C4HO-
68.9982	13	C3HO2-
83.0138	192	C4H3O2-
93.0345	84	C6H5O-
107.0137	205	C6H3O2-
108.0219	8	C6H4O2-
117.0348	25	C8H5O-
119.0502	999	C8H7O-
137.0246	6	C7H5O3-
143.0501	26	C10H7O-
145.0291	20	C9H5O2-
151.0037	105	C7H3O4-
161.0612	27	C10H9O2-
165.0196	11	C8H5O4-
177.019	17	C9H5O4-
187.04	42	C11H7O3-
