Mass spectrum: 3',4,4',5,7-Pentahydroxyflavan; LC-ESI-QFT; MS2; CE: 90%; R=17500; [M+H]+
Name: 3',4,4',5,7-Pentahydroxyflavan
Name: 2-(3,4-dihydroxyphenyl)-3,4-dihydro-2H-chromene-4,5,7-triol
Formula: C15H14O6
Exact mass: 290.0790382
SMILES: C1C(C2=C(C=C(C=C2OC1C3=CC(=C(C=C3)O)O)O)O)O
InChI: InChI=1S/C15H14O6/c16-8-4-11(19)15-12(20)6-13(21-14(15)5-8)7-1-2-9(17)10(18)3-7/h1-5,12-13,16-20H,6H2
Instrument: Exploris 240 Orbitrap Thermo Scientific
Instrument type: LC-ESI-QFT
Ms type: MS2
Ion mode: POSITIVE
Ionization: ESI
Fragmentation mode: HCD
Collision energy: 90 % (nominal)
Resolution: 17500
Column name: XBridge C18 3.5um, 2.1x50mm, Waters
Retention time: 2.891 min
Base peak: 291.0861
Precursor m/z: 291.0863
Precursor type: [M+H]+
m/z	relative intensity	assigned
51.0228	18	C4H3+
53.0385	46	C4H5+
55.0178	139	C3H3O+
55.0542	29	C4H7+
65.0386	143	C5H5+
67.0179	50	C4H3O+
67.0541	76	C5H7+
68.9971	138	C3HO2+
69.0333	26	C4H5O+
71.0126	20	C3H3O2+
77.0385	96	C6H5+
79.0541	14	C6H7+
81.0336	7	C5H5O+
83.0491	49	C5H7O+
91.0542	186	C7H7+
93.0334	79	C6H5O+
95.049	72	C6H7O+
97.0283	12	C5H5O2+
103.0543	15	C8H7+
105.0334	61	C7H5O+
105.0698	39	C8H9+
107.0489	21	C7H7O+
111.044	135	C6H7O2+
115.0541	124	C9H7+
119.0489	179	C8H7O+
123.044	999	C7H7O2+
127.0387	5	C6H7O3+
131.0489	22	C9H7O+
133.0286	7	C8H5O2+
133.0646	21	C9H9O+
137.0233	25	C7H5O3+
139.0389	363	C7H7O3+
143.0489	55	C10H7O+
147.044	137	C9H7O2+
161.0599	47	C10H9O2+
163.0393	14	C9H7O3+
