Mass spectrum: Aureusidin; LC-ESI-QFT; MS2; CE: 90%; R=17500; [M+H]+
Name: Aureusidin
Name: 2-[(3,4-Dihydroxyphenyl)methylidene]-4,6-dihydroxy-3-benzofuranone
Name: 2-[(3,4-dihydroxyphenyl)methylidene]-4,6-dihydroxy-1-benzofuran-3-one
Formula: C15H10O6
Exact mass: 286.047738
SMILES: C1=CC(=C(C=C1C=C2C(=O)C3=C(C=C(C=C3O2)O)O)O)O
InChI: InChI=1S/C15H10O6/c16-8-5-11(19)14-12(6-8)21-13(15(14)20)4-7-1-2-9(17)10(18)3-7/h1-6,16-19H
Instrument: Exploris 240 Orbitrap Thermo Scientific
Instrument type: LC-ESI-QFT
Ms type: MS2
Ion mode: POSITIVE
Ionization: ESI
Fragmentation mode: HCD
Collision energy: 90 % (nominal)
Resolution: 17500
Column name: XBridge C18 3.5um, 2.1x50mm, Waters
Retention time: 5.270 min
Base peak: 287.0547
Precursor m/z: 287.055
Precursor type: [M+H]+
m/z	relative intensity	assigned
51.023	22	C4H3+
53.0386	74	C4H5+
55.0178	118	C3H3O+
63.023	54	C5H3+
65.0387	73	C5H5+
67.0179	223	C4H3O+
68.9971	727	C3HO2+
69.0334	204	C4H5O+
77.0386	304	C6H5+
79.0178	24	C5H3O+
79.0542	166	C6H7+
81.0337	113	C5H5O+
83.0126	46	C4H3O2+
89.0385	999	C7H5+
91.0543	88	C7H7+
95.0126	41	C5H3O2+
95.0493	117	C6H7O+
97.0285	77	C5H5O2+
103.0544	66	C8H7+
105.0335	336	C7H5O+
105.07	43	C8H9+
107.0493	168	C7H7O+
108.0207	58	C6H4O2+
109.0287	22	C6H5O2+
111.0078	54	C5H3O3+
115.0543	284	C9H7+
117.0333	176	C8H5O+
117.0699	39	C9H9+
119.049	32	C8H7O+
121.0286	177	C7H5O2+
123.0444	92	C7H7O2+
124.0156	28	C6H4O3+
127.0543	55	C10H7+
128.0621	228	C10H8+
129.0698	165	C10H9+
131.0495	53	C9H7O+
134.0365	19	C8H6O2+
135.0442	88	C8H7O2+
137.0229	64	C7H5O3+
139.0544	163	C11H7+
141.0697	56	C11H9+
143.0491	66	C10H7O+
145.0651	62	C10H9O+
147.0439	110	C9H7O2+
149.0229	104	C8H5O3+
153.0183	978	C7H5O4+
157.0649	231	C11H9O+
160.0516	39	C10H8O2+
161.0234	78	C9H5O3+
161.0593	22	C10H9O2+
163.0395	104	C9H7O3+
167.0488	27	C12H7O+
171.0438	149	C11H7O2+
185.0603	141	C12H9O2+
191.0338	23	C10H7O4+
199.0386	47	C12H7O3+
213.0548	170	C13H9O3+
229.0493	39	C13H9O4+
240.0416	52	C14H8O4+
241.0496	144	C14H9O4+
