Mass spectrum: Kaempferol; LC-ESI-QFT; MS2; CE: 75%; R=17500; [M+H]+
Name: Kaempferol
Name: 3,5,7-trihydroxy-2-(4-hydroxyphenyl)chromen-4-one
Formula: C15H10O6
Exact mass: 286.047738
SMILES: C1=CC(=CC=C1C2=C(C(=O)C3=C(C=C(C=C3O2)O)O)O)O
InChI: InChI=1S/C15H10O6/c16-8-3-1-7(2-4-8)15-14(20)13(19)12-10(18)5-9(17)6-11(12)21-15/h1-6,16-18,20H
Instrument: Exploris 240 Orbitrap Thermo Scientific
Instrument type: LC-ESI-QFT
Ms type: MS2
Ion mode: POSITIVE
Ionization: ESI
Fragmentation mode: HCD
Collision energy: 75 % (nominal)
Resolution: 17500
Column name: XBridge C18 3.5um, 2.1x50mm, Waters
Retention time: 6.956 min
Base peak: 287.0548
Precursor m/z: 287.055
Precursor type: [M+H]+
m/z	relative intensity	assigned
53.0385	24	C4H5+
55.0178	23	C3H3O+
65.0387	40	C5H5+
67.0179	43	C4H3O+
68.9971	328	C3HO2+
69.0336	33	C4H5O+
77.0386	32	C6H5+
79.0541	77	C6H7+
81.0335	37	C5H5O+
93.0338	22	C6H5O+
95.0492	21	C6H7O+
103.0544	19	C8H7+
105.0335	71	C7H5O+
107.0491	145	C7H7O+
109.0283	82	C6H5O2+
111.0075	63	C5H3O3+
111.0441	26	C6H7O2+
115.0546	21	C9H7+
119.0492	26	C8H7O+
121.0286	549	C7H5O2+
128.0623	26	C10H8+
129.0702	34	C10H9+
133.0286	40	C8H5O2+
135.0444	30	C8H7O2+
136.0154	16	C7H4O3+
137.0232	153	C7H5O3+
141.0696	17	C11H9+
145.0649	48	C10H9O+
147.044	108	C9H7O2+
153.0182	999	C7H5O4+
157.065	172	C11H9O+
161.0597	38	C10H9O2+
165.0182	224	C8H5O4+
183.0289	36	C8H7O5+
185.0598	79	C12H9O2+
203.071	11	C12H11O3+
213.0545	212	C13H9O3+
216.0417	22	C12H8O4+
229.0487	51	C13H9O4+
231.0652	61	C13H11O4+
258.0526	118	C14H10O5+
259.0605	31	C14H11O5+
287.0552	295	C15H11O6+
