Mass spectrum: 3`,4,4`,5,7-Pentahydroxyflavan; LC-ESI-QFT; MS2; CE: 150%; R=17500; [M-H]-
Name: 3`,4,4`,5,7-Pentahydroxyflavan
Name: 2-(3,4-dihydroxyphenyl)-3,4-dihydro-2H-chromene-4,5,7-triol
Formula: C15H14O6
Exact mass: 290.079038168
SMILES: C1C(C2=C(C=C(C=C2OC1C3=CC(=C(C=C3)O)O)O)O)O
InChI: InChI=1S/C15H14O6/c16-8-4-11(19)15-12(20)6-13(21-14(15)5-8)7-1-2-9(17)10(18)3-7/h1-5,12-13,16-20H,6H2
Instrument: Exploris 240 Orbitrap Thermo Scientific
Instrument type: LC-ESI-QFT
Ms type: MS2
Ion mode: NEGATIVE
Ionization: ESI
Fragmentation mode: HCD
Collision energy: 150 % (nominal)
Resolution: 17500
Column name: XBridge C18 3.5um, 2.1x50mm, Waters
Retention time: 2.902 min
Base peak: 289.0717
Precursor m/z: 289.0718
Precursor type: [M-H]-
m/z	relative intensity	assigned
55.019	366	C3H3O-
57.0346	774	C3H5O-
65.0033	148	C4HO-
65.0397	224	C5H5-
67.0189	148	C4H3O-
69.0347	431	C4H5O-
83.0139	447	C4H3O2-
91.0191	148	C6H3O-
93.0348	317	C6H5O-
108.0216	999	C6H4O2-
109.0296	580	C6H5O2-
