Mass spectrum: Hexadecyl gallate; LC-ESI-QFT; MS2; CE: 45%; R=17500; [M+H]+
Name: Hexadecyl gallate
Name: Cetyl gallate
Name: hexadecyl 3,4,5-trihydroxybenzoate
Formula: C23H38O5
Exact mass: 394.2719243
SMILES: CCCCCCCCCCCCCCCCOC(=O)C1=CC(=C(C(=C1)O)O)O
InChI: InChI=1S/C23H38O5/c1-2-3-4-5-6-7-8-9-10-11-12-13-14-15-16-28-23(27)19-17-20(24)22(26)21(25)18-19/h17-18,24-26H,2-16H2,1H3
Instrument: Exploris 240 Orbitrap Thermo Scientific
Instrument type: LC-ESI-QFT
Ms type: MS2
Ion mode: POSITIVE
Ionization: ESI
Fragmentation mode: HCD
Collision energy: 45 % (nominal)
Resolution: 17500
Column name: XBridge C18 3.5um, 2.1x50mm, Waters
Retention time: 17.892 min
Base peak: 395.2793
Precursor m/z: 395.2792
Precursor type: [M+H]+
m/z	relative intensity	assigned
57.0699	259	C4H9+
71.0855	155	C5H11+
81.0336	58	C5H5O+
85.1012	79	C6H13+
107.0128	65	C6H3O2+
109.0284	401	C6H5O2+
125.0234	152	C6H5O3+
127.039	999	C6H7O3+
135.0077	23	C7H3O3+
153.0183	878	C7H5O4+
171.0289	470	C7H7O5+
185.0447	28	C8H9O5+
