Mass spectrum: 3',4,4',5,7-Pentahydroxyflavan; LC-ESI-QFT; MS2; CE: 45%; R=17500; [M+H]+
Name: 3',4,4',5,7-Pentahydroxyflavan
Name: 2-(3,4-dihydroxyphenyl)-3,4-dihydro-2H-chromene-4,5,7-triol
Formula: C15H14O6
Exact mass: 290.0790382
SMILES: C1C(C2=C(C=C(C=C2OC1C3=CC(=C(C=C3)O)O)O)O)O
InChI: InChI=1S/C15H14O6/c16-8-4-11(19)15-12(20)6-13(21-14(15)5-8)7-1-2-9(17)10(18)3-7/h1-5,12-13,16-20H,6H2
Instrument: Exploris 240 Orbitrap Thermo Scientific
Instrument type: LC-ESI-QFT
Ms type: MS2
Ion mode: POSITIVE
Ionization: ESI
Fragmentation mode: HCD
Collision energy: 45 % (nominal)
Resolution: 17500
Column name: XBridge C18 3.5um, 2.1x50mm, Waters
Retention time: 2.891 min
Base peak: 291.0861
Precursor m/z: 291.0863
Precursor type: [M+H]+
m/z	relative intensity	assigned
55.0178	5	C3H3O+
67.054	4	C5H7+
83.049	4	C5H7O+
95.0492	33	C6H7O+
119.0491	31	C8H7O+
123.044	522	C7H7O2+
127.0388	12	C6H7O3+
135.0442	8	C8H7O2+
137.0227	3	C7H5O3+
137.0598	11	C8H9O2+
139.0389	999	C7H7O3+
143.0493	18	C10H7O+
147.044	231	C9H7O2+
151.0388	20	C8H7O3+
151.075	5	C9H11O2+
153.0549	12	C8H9O3+
161.0597	101	C10H9O2+
163.0384	15	C9H7O3+
165.0546	72	C9H9O3+
169.049	7	C8H9O4+
177.0554	16	C10H9O3+
179.0702	75	C10H11O3+
181.0497	9	C9H9O4+
189.0552	24	C11H9O3+
207.0651	148	C11H11O4+
