Mass spectrum: UV320; LC-ESI-QFT; MS2; CE: 15%; R=17500; [M+H]+
Name: UV320
Name: 2-(benzotriazol-2-yl)-4,6-ditert-butylphenol
Formula: C20H25N3O
Exact mass: 323.1997624
SMILES: CC(C)(C)C1=CC(=C(C(=C1)N2N=C3C=CC=CC3=N2)O)C(C)(C)C
InChI: InChI=1S/C20H25N3O/c1-19(2,3)13-11-14(20(4,5)6)18(24)17(12-13)23-21-15-9-7-8-10-16(15)22-23/h7-12,24H,1-6H3
Instrument: Exploris 240 Orbitrap Thermo Scientific
Instrument type: LC-ESI-QFT
Ms type: MS2
Ion mode: POSITIVE
Ionization: ESI
Fragmentation mode: HCD
Collision energy: 15 % (nominal)
Resolution: 17500
Column name: XBridge C18 3.5um, 2.1x50mm, Waters
Retention time: 18.906 min
Base peak: 419.3156
Precursor m/z: 324.207
Precursor type: [M+H]+
m/z	relative intensity	assigned
324.207	999	C20H26N3O+
