Mass spectrum: BDPA; LC-ESI-QFT; MS2; CE: 60%; R=17500; [M+H]+
Name: BDPA
Name: 4-tert-butyl-N-phenylaniline
Formula: C16H19N
Exact mass: 225.1517
SMILES: CC(C)(C)C1=CC=C(C=C1)NC2=CC=CC=C2
InChI: InChI=1S/C16H19N/c1-16(2,3)13-9-11-15(12-10-13)17-14-7-5-4-6-8-14/h4-12,17H,1-3H3
Instrument: Exploris 240 Orbitrap Thermo Scientific
Instrument type: LC-ESI-QFT
Ms type: MS2
Ion mode: POSITIVE
Ionization: ESI
Fragmentation mode: HCD
Collision energy: 60 % (nominal)
Resolution: 17500
Column name: XBridge C18 3.5um, 2.1x50mm, Waters
Retention time: 13.759 min
Base peak: 226.1587
Precursor m/z: 226.159
Precursor type: [M+H]+
m/z	relative intensity	assigned
57.0699	155	C4H9+
134.0963	599	C9H12N+
170.0964	180	C12H12N+
202.0777	161	C16H10+
226.1591	999	C16H20N+
