Mass spectrum: AO697; LC-ESI-QFT; MS2; CE: 75%; R=17500; [M-H]-
Name: AO697
Name: Naugard XL-1
Name: 2-[[2-[2-[3-(3,5-ditert-butyl-4-hydroxyphenyl)propanoyloxy]ethylamino]-2-oxoacetyl]amino]ethyl 3-(3,5-ditert-butyl-4-hydroxyphenyl)propanoate
Formula: C40H60N2O8
Exact mass: 696.4350
SMILES: CC(C)(C)C1=CC(=CC(=C1O)C(C)(C)C)CCC(=O)OCCNC(=O)C(=O)NCCOC(=O)CCC2=CC(=C(C(=C2)C(C)(C)C)O)C(C)(C)C
InChI: InChI=1S/C40H60N2O8/c1-37(2,3)27-21-25(22-28(33(27)45)38(4,5)6)13-15-31(43)49-19-17-41-35(47)36(48)42-18-20-50-32(44)16-14-26-23-29(39(7,8)9)34(46)30(24-26)40(10,11)12/h21-24,45-46H,13-20H2,1-12H3,(H,41,47)(H,42,48)
Instrument: Exploris 240 Orbitrap Thermo Scientific
Instrument type: LC-ESI-QFT
Ms type: MS2
Ion mode: NEGATIVE
Ionization: ESI
Fragmentation mode: HCD
Collision energy: 75 % (nominal)
Resolution: 17500
Column name: XBridge C18 3.5um, 2.1x50mm, Waters
Retention time: 15.970 min
Base peak: 695.4277
Precursor m/z: 695.4277
Precursor type: [M-H]-
m/z	relative intensity	assigned
119.0502	105	C8H7O-
175.1126	127	C12H15O-
177.1287	107	C12H17O-
202.0788	578	C16H10-
205.1597	999	C14H21O-
217.1601	64	C15H21O-
233.1908	224	C16H25O-
277.1816	54	C17H25O3-
