Mass spectrum: 2-[3-(benzotriazol-2-yl)-4-hydroxyphenyl]ethyl 2-methylprop-2-enoate; LC-ESI-QFT; MS2; CE: 150%; R=17500; [M+H]+
Name: 2-[3-(benzotriazol-2-yl)-4-hydroxyphenyl]ethyl 2-methylprop-2-enoate
Formula: C18H17N3O3
Exact mass: 323.1269914
SMILES: CC(=C)C(=O)OCCC1=CC(=C(C=C1)O)N2N=C3C=CC=CC3=N2
InChI: InChI=1S/C18H17N3O3/c1-12(2)18(23)24-10-9-13-7-8-17(22)16(11-13)21-19-14-5-3-4-6-15(14)20-21/h3-8,11,22H,1,9-10H2,2H3
Instrument: Exploris 240 Orbitrap Thermo Scientific
Instrument type: LC-ESI-QFT
Ms type: MS2
Ion mode: POSITIVE
Ionization: ESI
Fragmentation mode: HCD
Collision energy: 150 % (nominal)
Resolution: 17500
Column name: XBridge C18 3.5um, 2.1x50mm, Waters
Retention time: 14.027 min
Base peak: 324.1341
Precursor m/z: 324.1343
Precursor type: [M+H]+
m/z	relative intensity	assigned
50.0149	13	C4H2+
51.0229	99	C4H3+
52.0307	23	C4H4+
53.0386	27	C4H5+
63.0229	68	C5H3+
64.0307	10	C5H4+
65.0385	999	C5H5+
77.0385	102	C6H5+
78.0337	19	C5H4N+
78.0464	10	C6H6+
79.0417	17	C5H5N+
79.0543	24	C6H7+
80.0494	12	C5H6N+
89.0384	33	C7H5+
91.0542	257	C7H7+
92.0495	23	C6H6N+
95.0489	30	C6H7O+
105.0446	69	C6H5N2+
115.0541	16	C9H7+
128.0622	11	C10H8+
139.0537	33	C11H7+
140.0493	17	C10H6N+
152.062	15	C12H8+
154.0649	7	C11H8N+
163.0547	11	C13H7+
166.0653	12	C12H8N+
