Mass spectrum: (-)-Epigallocatechin Gallate; LC-ESI-QFT; MS2; CE: 90%; R=17500; [M+H]+
Name: (-)-Epigallocatechin Gallate
Name: Tea, ext.
Name: [5,7-dihydroxy-2-(3,4,5-trihydroxyphenyl)-3,4-dihydro-2H-chromen-3-yl] 3,4,5-trihydroxybenzoate
Formula: C22H18O11
Exact mass: 458.0849114
SMILES: C1C(C(OC2=CC(=CC(=C21)O)O)C3=CC(=C(C(=C3)O)O)O)OC(=O)C4=CC(=C(C(=C4)O)O)O
InChI: InChI=1S/C22H18O11/c23-10-5-12(24)11-7-18(33-22(31)9-3-15(27)20(30)16(28)4-9)21(32-17(11)6-10)8-1-13(25)19(29)14(26)2-8/h1-6,18,21,23-30H,7H2
Instrument: Exploris 240 Orbitrap Thermo Scientific
Instrument type: LC-ESI-QFT
Ms type: MS2
Ion mode: POSITIVE
Ionization: ESI
Fragmentation mode: HCD
Collision energy: 90 % (nominal)
Resolution: 17500
Column name: XBridge C18 3.5um, 2.1x50mm, Waters
Retention time: 3.432 min
Base peak: 132.9582
Precursor m/z: 459.0922
Precursor type: [M+H]+
m/z	relative intensity	assigned
51.0229	33	C4H3+
53.0022	403	C3HO+
55.0177	45	C3H3O+
55.0541	14	C4H7+
65.0386	299	C5H5+
67.0177	26	C4H3O+
67.0541	38	C5H7+
68.9971	66	C3HO2+
69.0334	18	C4H5O+
71.0128	8	C3H3O2+
77.0385	13	C6H5+
79.0178	204	C5H3O+
79.0544	12	C6H7+
83.0491	29	C5H7O+
89.0388	18	C7H5+
93.0337	56	C6H5O+
95.0491	37	C6H7O+
97.0284	48	C5H5O2+
107.0126	32	C6H3O2+
107.049	26	C7H7O+
111.0442	90	C6H7O2+
121.0283	211	C7H5O2+
123.044	109	C7H7O2+
125.0232	32	C6H5O3+
131.0492	23	C9H7O+
133.0284	15	C8H5O2+
135.0436	21	C8H7O2+
139.039	999	C7H7O3+
143.0337	35	C6H7O4+
149.0596	10	C9H9O2+
163.0391	25	C9H7O3+
