Mass spectrum: 5-Methyl-2`-Deoxycytidine; LC-ESI-QFT; MS2; CE: 15%; R=17500; [M-H]-
Name: 5-Methyl-2`-Deoxycytidine
Name: 4-Amino-1-[4-hydroxy-5-(hydroxymethyl)tetrahydrofuran-2-yl]-5-methyl-pyrimidin-2-one
Name: 4-amino-1-[4-hydroxy-5-(hydroxymethyl)oxolan-2-yl]-5-methylpyrimidin-2-one
Formula: C10H15N3O4
Exact mass: 241.10625596
SMILES: CC1=CN(C(=O)N=C1N)C2CC(C(O2)CO)O
InChI: InChI=1S/C10H15N3O4/c1-5-3-13(10(16)12-9(5)11)8-2-6(15)7(4-14)17-8/h3,6-8,14-15H,2,4H2,1H3,(H2,11,12,16)
Instrument: Exploris 240 Orbitrap Thermo Scientific
Instrument type: LC-ESI-QFT
Ms type: MS2
Ion mode: NEGATIVE
Ionization: ESI
Fragmentation mode: HCD
Collision energy: 15 % (nominal)
Resolution: 17500
Column name: XBridge C18 3.5um, 2.1x50mm, Waters
Retention time: 1.362 min
Base peak: 112.9857
Precursor m/z: 240.099
Precursor type: [M-H]-
m/z	relative intensity	assigned
107.0615	93	C6H7N2-
124.0513	25	C5H6N3O-
149.0716	15	C8H9N2O-
150.0673	50	C7H8N3O-
240.0989	999	C10H14N3O4-
