Mass spectrum: Isoliquiritigenin; LC-ESI-QFT; MS2; CE: 15%; R=17500; [M+H]+
Name: Isoliquiritigenin
Name: 1-(2,4-dihydroxyphenyl)-3-(4-hydroxyphenyl)prop-2-en-1-one
Formula: C15H12O4
Exact mass: 256.0735589
SMILES: C1=CC(=CC=C1C=CC(=O)C2=C(C=C(C=C2)O)O)O
InChI: InChI=1S/C15H12O4/c16-11-4-1-10(2-5-11)3-8-14(18)13-7-6-12(17)9-15(13)19/h1-9,16-17,19H
Instrument: Exploris 240 Orbitrap Thermo Scientific
Instrument type: LC-ESI-QFT
Ms type: MS2
Ion mode: POSITIVE
Ionization: ESI
Fragmentation mode: HCD
Collision energy: 15 % (nominal)
Resolution: 17500
Column name: XBridge C18 3.5um, 2.1x50mm, Waters
Retention time: 7.266 min
Base peak: 257.0806
Precursor m/z: 257.0808
Precursor type: [M+H]+
m/z	relative intensity	assigned
257.0808	999	C15H13O4+
