Mass spectrum: 2-(3,4-Dihydroxyphenyl)Chroman-3,5,7-Triol; LC-ESI-QFT; MS2; CE: 90%; R=17500; [M+H]+
Name: 2-(3,4-Dihydroxyphenyl)Chroman-3,5,7-Triol
Name: 2-(3,4-dihydroxyphenyl)-3,4-dihydro-2H-1-benzopyran-3,5,7-triol
Name: 2-(3,4-dihydroxyphenyl)-3,4-dihydro-2H-chromene-3,5,7-triol
Formula: C15H14O6
Exact mass: 290.0790382
SMILES: C1C(C(OC2=CC(=CC(=C21)O)O)C3=CC(=C(C=C3)O)O)O
InChI: InChI=1S/C15H14O6/c16-8-4-11(18)9-6-13(20)15(21-14(9)5-8)7-1-2-10(17)12(19)3-7/h1-5,13,15-20H,6H2
Instrument: Exploris 240 Orbitrap Thermo Scientific
Instrument type: LC-ESI-QFT
Ms type: MS2
Ion mode: POSITIVE
Ionization: ESI
Fragmentation mode: HCD
Collision energy: 90 % (nominal)
Resolution: 17500
Column name: XBridge C18 3.5um, 2.1x50mm, Waters
Retention time: 2.894 min
Base peak: 291.0862
Precursor m/z: 291.0863
Precursor type: [M+H]+
m/z	relative intensity	assigned
51.023	17	C4H3+
53.0385	43	C4H5+
55.0178	123	C3H3O+
55.0542	28	C4H7+
65.0385	131	C5H5+
67.0178	47	C4H3O+
67.0542	71	C5H7+
68.9971	139	C3HO2+
69.0335	22	C4H5O+
71.0126	17	C3H3O2+
77.0385	98	C6H5+
79.0539	13	C6H7+
81.0335	11	C5H5O+
83.0492	54	C5H7O+
85.0286	8	C4H5O2+
91.0542	189	C7H7+
93.0335	74	C6H5O+
95.0491	68	C6H7O+
97.0284	22	C5H5O2+
103.054	21	C8H7+
105.0335	62	C7H5O+
105.0697	39	C8H9+
107.0491	17	C7H7O+
111.044	139	C6H7O2+
115.0542	124	C9H7+
119.0491	168	C8H7O+
121.0282	12	C7H5O2+
123.044	999	C7H7O2+
127.0392	13	C6H7O3+
131.0493	23	C9H7O+
133.0286	7	C8H5O2+
133.0647	19	C9H9O+
137.0235	21	C7H5O3+
139.039	375	C7H7O3+
143.049	45	C10H7O+
147.044	154	C9H7O2+
161.0601	39	C10H9O2+
163.0393	15	C9H7O3+
