Mass spectrum: 6PPD-Quinone; LC-ESI-QFT; MS2; CE: 75%; R=17500; [M+H]+
Name: 6PPD-Quinone
Name: 2-anilino-5-(4-methylpentan-2-ylamino)cyclohexa-2,5-diene-1,4-dione
Formula: C18H22N2O2
Exact mass: 298.1681279
SMILES: CC(C)CC(C)NC1=CC(=O)C(=CC1=O)NC2=CC=CC=C2
InChI: InChI=1S/C18H22N2O2/c1-12(2)9-13(3)19-15-10-18(22)16(11-17(15)21)20-14-7-5-4-6-8-14/h4-8,10-13,19-20H,9H2,1-3H3
Instrument: Exploris 240 Orbitrap Thermo Scientific
Instrument type: LC-ESI-QFT
Ms type: MS2
Ion mode: POSITIVE
Ionization: ESI
Fragmentation mode: HCD
Collision energy: 75 % (nominal)
Resolution: 17500
Column name: XBridge C18 3.5um, 2.1x50mm, Waters
Retention time: 11.329 min
Base peak: 299.175
Precursor m/z: 299.1754
Precursor type: [M+H]+
m/z	relative intensity	assigned
55.0177	35	C3H3O+
57.0699	37	C4H9+
58.0651	24	C3H8N+
67.0177	24	C4H3O+
68.013	11	C3H2NO+
84.0443	127	C4H6NO+
84.0808	15	C5H10N+
93.0573	59	C6H7N+
94.0655	60	C6H8N+
104.0494	97	C7H6N+
109.0284	17	C6H5O2+
109.0397	14	C5H5N2O+
115.054	37	C9H7+
118.065	59	C8H8N+
120.0805	44	C8H10N+
130.0656	14	C9H8N+
132.0807	11	C9H10N+
139.05	13	C6H7N2O2+
142.065	68	C10H8N+
144.0805	45	C10H10N+
146.0601	94	C9H8NO+
148.0394	23	C8H6NO2+
154.065	32	C11H8N+
158.0841	13	C10H10N2+
159.0913	48	C10H11N2+
170.0602	135	C11H8NO+
172.0758	79	C11H10NO+
182.0596	25	C12H8NO+
187.0865	816	C11H11N2O+
199.0629	12	C12H9NO2+
199.0858	12	C12H11N2O+
200.0706	122	C12H10NO2+
201.0791	28	C12H11NO2+
215.0821	31	C12H11N2O2+
216.0897	62	C12H12N2O2+
226.0737	21	C13H10N2O2+
241.097	999	C14H13N2O2+
