Mass spectrum: Dioxybenzone; LC-ESI-QFT; MS2; CE: 75%; R=17500; [M+H]+
Name: Dioxybenzone
Name: 2,2'-Dihydroxy-4-methoxybenzophenone
Name: (2-hydroxy-4-methoxyphenyl)-(2-hydroxyphenyl)methanone
Formula: C14H12O4
Exact mass: 244.0735589
SMILES: COC1=CC(=C(C=C1)C(=O)C2=CC=CC=C2O)O
InChI: InChI=1S/C14H12O4/c1-18-9-6-7-11(13(16)8-9)14(17)10-4-2-3-5-12(10)15/h2-8,15-16H,1H3
Instrument: Exploris 240 Orbitrap Thermo Scientific
Instrument type: LC-ESI-QFT
Ms type: MS2
Ion mode: POSITIVE
Ionization: ESI
Fragmentation mode: HCD
Collision energy: 75 % (nominal)
Resolution: 17500
Column name: XBridge C18 3.5um, 2.1x50mm, Waters
Retention time: 8.791 min
Base peak: 245.0806
Precursor m/z: 245.0808
Precursor type: [M+H]+
m/z	relative intensity	assigned
65.0386	205	C5H5+
67.0542	8	C5H7+
80.0257	8	C5H4O+
93.0335	87	C6H5O+
95.0492	138	C6H7O+
108.0203	18	C6H4O2+
111.0441	17	C6H7O2+
121.0286	999	C7H5O2+
123.0439	18	C7H7O2+
151.039	363	C8H7O3+
