Mass spectrum: 2`-Deoxyguanosine; LC-ESI-QFT; MS2; CE: 60%; R=17500; [M-H]-
Name: 2`-Deoxyguanosine
Name: CID 638
Name: 2-amino-9-[4-hydroxy-5-(hydroxymethyl)oxolan-2-yl]-3H-purin-6-one
Formula: C10H13N5O4
Exact mass: 267.096753896
SMILES: C1C(C(OC1N2C=NC3=C2N=C(NC3=O)N)CO)O
InChI: InChI=1S/C10H13N5O4/c11-10-13-8-7(9(18)14-10)12-3-15(8)6-1-4(17)5(2-16)19-6/h3-6,16-17H,1-2H2,(H3,11,13,14,18)
Instrument: Exploris 240 Orbitrap Thermo Scientific
Instrument type: LC-ESI-QFT
Ms type: MS2
Ion mode: NEGATIVE
Ionization: ESI
Fragmentation mode: HCD
Collision energy: 60 % (nominal)
Resolution: 17500
Column name: XBridge C18 3.5um, 2.1x50mm, Waters
Retention time: 1.683 min
Base peak: 266.0894
Precursor m/z: 266.0895
Precursor type: [M-H]-
m/z	relative intensity	assigned
59.0138	43	C2H3O2-
65.0146	9	C3HN2-
66.0101	4	C2N3-
82.0409	17	C3H4N3-
91.0301	5	C5H3N2-
106.0284	10	C4H2N4-
106.0409	7	C5H4N3-
107.0363	79	C4H3N4-
108.0203	267	C4H2N3O-
126.0306	24	C4H4N3O2-
133.0155	512	C5HN4O-
134.036	37	C6H4N3O-
149.0343	25	C5H3N5O-
150.0421	999	C5H4N5O-
159.031	10	C7H3N4O-
176.0579	145	C7H6N5O-
266.0891	8	C10H12N5O4-
