Mass spectrum: diAMS; LC-ESI-QFT; MS2; CE: 150%; R=17500; [M+H]+
Name: diAMS
Name: Bis[4-(2-phenyl-2-propyl)phenyl]amine
Name: 4-(2-phenylpropan-2-yl)-N-[4-(2-phenylpropan-2-yl)phenyl]aniline
Formula: C30H31N
Exact mass: 405.2457
SMILES: CC(C)(C1=CC=CC=C1)C2=CC=C(C=C2)NC3=CC=C(C=C3)C(C)(C)C4=CC=CC=C4
InChI: InChI=1S/C30H31N/c1-29(2,23-11-7-5-8-12-23)25-15-19-27(20-16-25)31-28-21-17-26(18-22-28)30(3,4)24-13-9-6-10-14-24/h5-22,31H,1-4H3
Instrument: Exploris 240 Orbitrap Thermo Scientific
Instrument type: LC-ESI-QFT
Ms type: MS2
Ion mode: POSITIVE
Ionization: ESI
Fragmentation mode: HCD
Collision energy: 150 % (nominal)
Resolution: 17500
Column name: XBridge C18 3.5um, 2.1x50mm, Waters
Retention time: 17.422 min
Base peak: 406.2525
Precursor m/z: 406.2529
Precursor type: [M+H]+
m/z	relative intensity	assigned
51.0229	62	C4H3+
53.0386	80	C4H5+
65.0386	319	C5H5+
77.0386	210	C6H5+
91.0542	999	C7H7+
94.0648	68	C6H8N+
103.0542	552	C8H7+
115.0543	54	C9H7+
117.0572	189	C8H7N+
118.0652	187	C8H8N+
152.0622	139	C12H8+
153.0701	65	C12H9+
165.07	111	C13H9+
178.0777	250	C14H10+
180.0809	283	C13H10N+
202.0778	315	C16H10+
