Mass spectrum: N-(1-Methylheptyl)-N'-phenyl-p-phenylenediamine; LC-ESI-QFT; MS2; CE: 180%; R=17500; [M+H]+
Name: N-(1-Methylheptyl)-N'-phenyl-p-phenylenediamine
Name: 4-N-octan-2-yl-1-N-phenylbenzene-1,4-diamine
Formula: C20H28N2
Exact mass: 296.2252489
SMILES: CCCCCCC(C)NC1=CC=C(C=C1)NC2=CC=CC=C2
InChI: InChI=1S/C20H28N2/c1-3-4-5-7-10-17(2)21-19-13-15-20(16-14-19)22-18-11-8-6-9-12-18/h6,8-9,11-17,21-22H,3-5,7,10H2,1-2H3
Instrument: Exploris 240 Orbitrap Thermo Scientific
Instrument type: LC-ESI-QFT
Ms type: MS2
Ion mode: POSITIVE
Ionization: ESI
Fragmentation mode: HCD
Collision energy: 180 % (nominal)
Resolution: 17500
Column name: XBridge C18 3.5um, 2.1x50mm, Waters
Retention time: 10.936 min
Base peak: 297.2322
Precursor m/z: 297.2325
Precursor type: [M+H]+
m/z	relative intensity	assigned
51.0229	46	C4H3+
53.0385	264	C4H5+
54.0338	34	C3H4N+
63.0229	79	C5H3+
65.0385	143	C5H5+
66.0337	12	C4H4N+
66.0463	131	C5H6+
67.0416	18	C4H5N+
77.0386	34	C6H5+
78.0338	25	C5H4N+
79.0415	12	C5H5N+
80.0494	999	C5H6N+
89.0386	18	C7H5+
90.0337	35	C6H4N+
91.0418	29	C6H5N+
92.0494	36	C6H6N+
93.0572	96	C6H7N+
105.0445	24	C6H5N2+
107.0603	219	C6H7N2+
115.0542	40	C9H7+
128.0621	22	C10H8+
139.0538	97	C11H7+
140.0493	58	C10H6N+
154.0653	15	C11H8N+
166.065	56	C12H8N+
167.0729	34	C12H9N+
181.0765	22	C12H9N2+
