Mass spectrum: Naringenin; LC-ESI-QFT; MS2; CE: 30%; R=17500; [M-H]-
Name: Naringenin
Name: (+-)-Naringenin
Name: 5,7-dihydroxy-2-(4-hydroxyphenyl)-2,3-dihydrochromen-4-one
Formula: C15H12O5
Exact mass: 272.068473484
SMILES: C1C(OC2=CC(=CC(=C2C1=O)O)O)C3=CC=C(C=C3)O
InChI: InChI=1S/C15H12O5/c16-9-3-1-8(2-4-9)13-7-12(19)15-11(18)5-10(17)6-14(15)20-13/h1-6,13,16-18H,7H2
Instrument: Exploris 240 Orbitrap Thermo Scientific
Instrument type: LC-ESI-QFT
Ms type: MS2
Ion mode: NEGATIVE
Ionization: ESI
Fragmentation mode: HCD
Collision energy: 30 % (nominal)
Resolution: 17500
Column name: XBridge C18 3.5um, 2.1x50mm, Waters
Retention time: 6.319 min
Base peak: 271.0611
Precursor m/z: 271.0612
Precursor type: [M-H]-
m/z	relative intensity	assigned
83.0138	6	C4H3O2-
93.0345	52	C6H5O-
107.0135	22	C6H3O2-
119.0502	113	C8H7O-
125.0245	7	C6H5O3-
145.0295	5	C9H5O2-
151.0036	517	C7H3O4-
165.0189	18	C8H5O4-
177.0193	85	C9H5O4-
227.0707	8	C14H11O3-
271.0611	999	C15H11O5-
