Mass spectrum: Taxifolin; LC-ESI-QFT; MS2; CE: 75%; R=17500; [M-H]-
Name: Taxifolin
Name: 3,5,7,3`,4`-Pentahydroxyflavanone
Name: 2-(3,4-dihydroxyphenyl)-3,5,7-trihydroxy-2,3-dihydrochromen-4-one
Formula: C15H12O7
Exact mass: 304.058302724
SMILES: C1=CC(=C(C=C1C2C(C(=O)C3=C(C=C(C=C3O2)O)O)O)O)O
InChI: InChI=1S/C15H12O7/c16-7-4-10(19)12-11(5-7)22-15(14(21)13(12)20)6-1-2-8(17)9(18)3-6/h1-5,14-19,21H
Instrument: Exploris 240 Orbitrap Thermo Scientific
Instrument type: LC-ESI-QFT
Ms type: MS2
Ion mode: NEGATIVE
Ionization: ESI
Fragmentation mode: HCD
Collision energy: 75 % (nominal)
Resolution: 17500
Column name: XBridge C18 3.5um, 2.1x50mm, Waters
Retention time: 4.371 min
Base peak: 303.0509
Precursor m/z: 303.051
Precursor type: [M-H]-
m/z	relative intensity	assigned
57.0346	999	C3H5O-
63.0241	89	C5H3-
65.0033	204	C4HO-
68.9983	14	C3HO2-
81.0345	58	C5H5O-
83.0138	314	C4H3O2-
93.0345	50	C6H5O-
95.0505	8	C6H7O-
96.0217	69	C5H4O2-
105.0351	20	C7H5O-
107.0138	129	C6H3O2-
108.0221	27	C6H4O2-
109.0294	70	C6H5O2-
111.009	18	C5H3O3-
119.0503	19	C8H7O-
121.0294	99	C7H5O2-
122.0373	77	C7H6O2-
123.0451	295	C7H7O2-
124.0165	129	C6H4O3-
125.0244	984	C6H5O3-
129.0346	14	C9H5O-
133.0296	34	C8H5O2-
137.0246	23	C7H5O3-
139.0402	35	C7H7O3-
143.0504	27	C10H7O-
145.0298	43	C9H5O2-
146.0377	42	C9H6O2-
147.0453	68	C9H7O2-
149.0246	87	C8H5O3-
150.0322	290	C8H6O3-
151.0036	138	C7H3O4-
151.0397	130	C8H7O3-
152.0118	88	C7H4O4-
153.0191	40	C7H5O4-
159.0457	26	C10H7O2-
161.0609	28	C10H9O2-
164.0478	25	C9H8O3-
165.0561	33	C9H9O3-
171.0451	44	C11H7O2-
174.0321	96	C10H6O3-
175.0399	109	C10H7O3-
177.02	19	C9H5O4-
188.0476	47	C11H8O3-
189.0564	35	C11H9O3-
193.0507	27	C10H9O4-
201.0197	41	C11H5O4-
