Mass spectrum: Silibinin; LC-ESI-QFT; MS2; CE: 75%; R=17500; [M-H]-
Name: Silibinin
Name: Silymarin
Name: 3,5,7-trihydroxy-2-[3-(4-hydroxy-3-methoxyphenyl)-2-(hydroxymethyl)-2,3-dihydro-1,4-benzodioxin-6-yl]-2,3-dihydrochromen-4-one
Formula: C25H22O10
Exact mass: 482.121296904
SMILES: COC1=C(C=CC(=C1)C2C(OC3=C(O2)C=C(C=C3)C4C(C(=O)C5=C(C=C(C=C5O4)O)O)O)CO)O
InChI: InChI=1S/C25H22O10/c1-32-17-6-11(2-4-14(17)28)24-20(10-26)33-16-5-3-12(7-18(16)34-24)25-23(31)22(30)21-15(29)8-13(27)9-19(21)35-25/h2-9,20,23-29,31H,10H2,1H3
Instrument: Exploris 240 Orbitrap Thermo Scientific
Instrument type: LC-ESI-QFT
Ms type: MS2
Ion mode: NEGATIVE
Ionization: ESI
Fragmentation mode: HCD
Collision energy: 75 % (nominal)
Resolution: 17500
Column name: XBridge C18 3.5um, 2.1x50mm, Waters
Retention time: 6.163 min
Base peak: 481.1138
Precursor m/z: 481.114
Precursor type: [M-H]-
m/z	relative intensity	assigned
57.0346	730	C3H5O-
63.024	215	C5H3-
65.0033	330	C4HO-
68.9983	43	C3HO2-
81.0345	34	C5H5O-
83.0138	379	C4H3O2-
93.0345	141	C6H5O-
95.0139	49	C5H3O2-
96.0217	331	C5H4O2-
107.0138	311	C6H3O2-
108.0217	66	C6H4O2-
109.0295	74	C6H5O2-
111.0088	40	C5H3O3-
117.0346	22	C8H5O-
119.0137	28	C7H3O2-
119.0506	52	C8H7O-
121.0294	347	C7H5O2-
122.0374	49	C7H6O2-
123.0449	60	C7H7O2-
124.0166	725	C6H4O3-
125.0244	999	C6H5O3-
131.0504	25	C9H7O-
134.0371	113	C8H6O2-
135.0452	61	C8H7O2-
137.0242	113	C7H5O3-
139.0404	38	C7H7O3-
143.0502	36	C10H7O-
145.0299	122	C9H5O2-
146.0372	308	C9H6O2-
147.009	41	C8H3O3-
147.0453	68	C9H7O2-
149.0245	132	C8H5O3-
150.0326	43	C8H6O3-
151.0037	503	C7H3O4-
152.0115	709	C7H4O4-
153.0194	37	C7H5O4-
159.0451	128	C10H7O2-
161.0247	48	C9H5O3-
161.0612	30	C10H9O2-
162.0328	34	C9H6O3-
163.0399	82	C9H7O3-
164.0479	115	C9H8O3-
165.0194	30	C8H5O4-
171.0453	58	C11H7O2-
174.0327	31	C10H6O3-
178.9986	104	C8H3O5-
183.0453	90	C12H7O2-
187.0402	120	C11H7O3-
188.0482	26	C11H8O3-
189.0556	37	C11H9O3-
199.0408	55	C12H7O3-
201.0552	33	C12H9O3-
211.0404	64	C13H7O3-
255.03	38	C14H7O5-
273.04	29	C14H9O6-
