Mass spectrum: AO1024; LC-ESI-QFT; MS2; CE: 75%; R=17500; [M+H]+
Name: AO1024
Name: 1,2-Bis(3,5-di-tert-butyl-4-hydroxyhydrocinnamoyl)hydrazine
Name: 3-(3,5-ditert-butyl-4-hydroxyphenyl)-N'-[3-(3,5-ditert-butyl-4-hydroxyphenyl)propanoyl]propanehydrazide
Formula: C34H52N2O4
Exact mass: 552.3927081
SMILES: CC(C)(C)C1=CC(=CC(=C1O)C(C)(C)C)CCC(=O)NNC(=O)CCC2=CC(=C(C(=C2)C(C)(C)C)O)C(C)(C)C
InChI: InChI=1S/C34H52N2O4/c1-31(2,3)23-17-21(18-24(29(23)39)32(4,5)6)13-15-27(37)35-36-28(38)16-14-22-19-25(33(7,8)9)30(40)26(20-22)34(10,11)12/h17-20,39-40H,13-16H2,1-12H3,(H,35,37)(H,36,38)
Instrument: Exploris 240 Orbitrap Thermo Scientific
Instrument type: LC-ESI-QFT
Ms type: MS2
Ion mode: POSITIVE
Ionization: ESI
Fragmentation mode: HCD
Collision energy: 75 % (nominal)
Resolution: 17500
Column name: XBridge C18 3.5um, 2.1x50mm, Waters
Retention time: 15.091 min
Base peak: 570.4265
Precursor m/z: 553.4
Precursor type: [M+H]+
m/z	relative intensity	assigned
69.0698	4	C5H9+
75.0553	33	C2H7N2O+
79.0544	5	C6H7+
81.0698	6	C6H9+
91.0543	10	C7H7+
93.0702	4	C7H9+
105.0699	7	C8H9+
107.0492	999	C7H7O+
118.0654	21	C8H8N+
119.0491	11	C8H7O+
119.0853	20	C9H11+
121.065	38	C8H9O+
121.1011	27	C9H13+
122.0601	3	C7H8NO+
133.1011	17	C10H13+
145.1008	3	C11H13+
146.0601	63	C9H8NO+
147.0805	109	C10H11O+
149.0599	93	C9H9O2+
161.0964	8	C11H13O+
161.1324	19	C12H17+
163.1118	353	C11H15O+
175.148	9	C13H19+
181.0973	82	C9H13N2O2+
187.1115	6	C13H15O+
188.1201	4	C13H16O+
203.1431	185	C14H19O+
205.1225	7	C13H17O2+
219.1745	250	C15H23O+
