Mass spectrum: AO1680; LC-ESI-QFT; MS2; CE: 120%; R=17500; [M+H]+
Name: AO1680
Name: Tris(2,4-ditert-butylphenyl)phosphate
Name: tris(2,4-ditert-butylphenyl) phosphate
Formula: C42H63O4P
Exact mass: 662.446397126
SMILES: CC(C)(C)C1=CC(=C(C=C1)OP(=O)(OC2=C(C=C(C=C2)C(C)(C)C)C(C)(C)C)OC3=C(C=C(C=C3)C(C)(C)C)C(C)(C)C)C(C)(C)C
InChI: InChI=1S/C42H63O4P/c1-37(2,3)28-19-22-34(31(25-28)40(10,11)12)44-47(43,45-35-23-20-29(38(4,5)6)26-32(35)41(13,14)15)46-36-24-21-30(39(7,8)9)27-33(36)42(16,17)18/h19-27H,1-18H3
Instrument: Exploris 240 Orbitrap Thermo Scientific
Instrument type: LC-ESI-QFT
Ms type: MS2
Ion mode: POSITIVE
Ionization: ESI
Fragmentation mode: HCD
Collision energy: 120 % (nominal)
Resolution: 17500
Column name: XBridge C18 3.5um, 2.1x50mm, Waters
Retention time: 22.960 min
Base peak: 685.4357
Precursor m/z: 663.4537
Precursor type: [M+H]+
m/z	relative intensity	assigned
77.0386	491	C6H5+
78.0463	70	C6H6+
79.0542	97	C6H7+
91.0542	999	C7H7+
94.0414	32	C6H6O+
95.0491	267	C6H7O+
103.0543	107	C8H7+
104.0621	177	C8H8+
105.0698	166	C8H9+
115.0542	158	C9H7+
116.0624	28	C9H8+
117.0698	516	C9H9+
119.0854	60	C9H11+
128.0627	14	C10H8+
129.0701	27	C10H9+
131.0854	80	C10H11+
132.0936	32	C10H12+
147.1165	16	C11H15+
151.0541	27	C12H7+
152.062	403	C12H8+
153.0697	32	C12H9+
168.0569	134	C12H8O+
169.0646	24	C12H9O+
175.0158	31	C6H8O4P+
187.0306	12	C11H8OP+
215.0259	26	C12H8O2P+
