Mass spectrum: (-)-Epigallocatechin Gallate; LC-ESI-QFT; MS2; CE: 75%; R=17500; [M+H]+
Name: (-)-Epigallocatechin Gallate
Name: Tea, ext.
Name: [5,7-dihydroxy-2-(3,4,5-trihydroxyphenyl)-3,4-dihydro-2H-chromen-3-yl] 3,4,5-trihydroxybenzoate
Formula: C22H18O11
Exact mass: 458.0849114
SMILES: C1C(C(OC2=CC(=CC(=C21)O)O)C3=CC(=C(C(=C3)O)O)O)OC(=O)C4=CC(=C(C(=C4)O)O)O
InChI: InChI=1S/C22H18O11/c23-10-5-12(24)11-7-18(33-22(31)9-3-15(27)20(30)16(28)4-9)21(32-17(11)6-10)8-1-13(25)19(29)14(26)2-8/h1-6,18,21,23-30H,7H2
Instrument: Exploris 240 Orbitrap Thermo Scientific
Instrument type: LC-ESI-QFT
Ms type: MS2
Ion mode: POSITIVE
Ionization: ESI
Fragmentation mode: HCD
Collision energy: 75 % (nominal)
Resolution: 17500
Column name: XBridge C18 3.5um, 2.1x50mm, Waters
Retention time: 3.432 min
Base peak: 132.9582
Precursor m/z: 459.0922
Precursor type: [M+H]+
m/z	relative intensity	assigned
51.0229	6	C4H3+
53.0022	62	C3HO+
55.0177	11	C3H3O+
65.0386	81	C5H5+
67.0543	18	C5H7+
68.997	23	C3HO2+
79.0179	50	C5H3O+
83.0492	9	C5H7O+
93.0336	21	C6H5O+
95.0492	13	C6H7O+
97.0284	14	C5H5O2+
107.0127	12	C6H3O2+
107.0491	12	C7H7O+
111.0439	37	C6H7O2+
121.0284	90	C7H5O2+
123.0441	83	C7H7O2+
125.0233	22	C6H5O3+
133.0285	12	C8H5O2+
135.0441	15	C8H7O2+
139.039	999	C7H7O3+
143.0341	25	C6H7O4+
145.0286	7	C9H5O2+
149.0598	8	C9H9O2+
151.0388	14	C8H7O3+
163.0389	34	C9H7O3+
