Mass spectrum: Ellagic Acid; LC-ESI-QFT; MS2; CE: 90%; R=17500; [M+H]+
Name: Ellagic Acid
Name: 6,7,13,14-tetrahydroxy-2,9-dioxatetracyclo[6.6.2.04,16.011,15]hexadeca-1(15),4,6,8(16),11,13-hexaene-3,10-dione
Formula: C14H6O8
Exact mass: 302.0062672
SMILES: C1=C2C3=C(C(=C1O)O)OC(=O)C4=CC(=C(C(=C43)OC2=O)O)O
InChI: InChI=1S/C14H6O8/c15-5-1-3-7-8-4(14(20)22-11(7)9(5)17)2-6(16)10(18)12(8)21-13(3)19/h1-2,15-18H
Instrument: Exploris 240 Orbitrap Thermo Scientific
Instrument type: LC-ESI-QFT
Ms type: MS2
Ion mode: POSITIVE
Ionization: ESI
Fragmentation mode: HCD
Collision energy: 90 % (nominal)
Resolution: 17500
Column name: XBridge C18 3.5um, 2.1x50mm, Waters
Retention time: 4.941 min
Base peak: 132.9582
Precursor m/z: 303.0135
Precursor type: [M+H]+
m/z	relative intensity	assigned
63.0232	48	C5H3+
65.0387	62	C5H5+
68.9972	56	C3HO2+
75.0231	60	C6H3+
77.0387	65	C6H5+
79.0543	125	C6H7+
89.0385	838	C7H5+
91.0543	259	C7H7+
95.0494	26	C6H7O+
101.0385	153	C8H5+
103.018	117	C7H3O+
105.0336	36	C7H5O+
107.0492	54	C7H7O+
117.0335	672	C8H5O+
119.0493	71	C8H7O+
127.0178	104	C9H3O+
129.0336	174	C9H5O+
131.0123	27	C8H3O2+
135.0441	69	C8H7O2+
145.0284	917	C9H5O2+
147.0441	180	C9H7O2+
155.0129	61	C10H3O2+
157.0284	148	C10H5O2+
163.039	204	C9H7O3+
173.0233	886	C10H5O3+
175.0392	48	C10H7O3+
183.0075	357	C11H3O3+
185.0231	100	C11H5O3+
191.034	129	C10H7O4+
201.0183	999	C11H5O4+
211.0023	54	C12H3O4+
213.0181	24	C12H5O4+
219.0293	73	C11H7O5+
229.0131	358	C12H5O5+
231.0293	16	C12H7O5+
247.0242	131	C12H7O6+
257.0087	135	C13H5O6+
