Mass spectrum: 3`,4,4`,5,7-Pentahydroxyflavan; LC-ESI-QFT; MS2; CE: 60%; R=17500; [M-H]-
Name: 3`,4,4`,5,7-Pentahydroxyflavan
Name: 2-(3,4-dihydroxyphenyl)-3,4-dihydro-2H-chromene-4,5,7-triol
Formula: C15H14O6
Exact mass: 290.079038168
SMILES: C1C(C2=C(C=C(C=C2OC1C3=CC(=C(C=C3)O)O)O)O)O
InChI: InChI=1S/C15H14O6/c16-8-4-11(19)15-12(20)6-13(21-14(15)5-8)7-1-2-9(17)10(18)3-7/h1-5,12-13,16-20H,6H2
Instrument: Exploris 240 Orbitrap Thermo Scientific
Instrument type: LC-ESI-QFT
Ms type: MS2
Ion mode: NEGATIVE
Ionization: ESI
Fragmentation mode: HCD
Collision energy: 60 % (nominal)
Resolution: 17500
Column name: XBridge C18 3.5um, 2.1x50mm, Waters
Retention time: 2.902 min
Base peak: 289.0717
Precursor m/z: 289.0718
Precursor type: [M-H]-
m/z	relative intensity	assigned
57.0346	173	C3H5O-
69.0349	28	C4H5O-
80.027	27	C5H4O-
81.0345	152	C5H5O-
83.0139	159	C4H3O2-
93.0345	57	C6H5O-
95.0141	31	C5H3O2-
95.0502	207	C6H7O-
97.0295	279	C5H5O2-
99.0452	23	C5H7O2-
105.0347	22	C7H5O-
108.0218	32	C6H4O2-
109.0295	932	C6H5O2-
121.0295	210	C7H5O2-
122.0374	124	C7H6O2-
123.0452	999	C7H7O2-
125.0244	482	C6H5O3-
133.0293	15	C8H5O2-
135.0448	81	C8H7O2-
137.0244	280	C7H5O3-
138.0324	44	C7H6O3-
139.0403	124	C7H7O3-
145.0298	76	C9H5O2-
146.0376	51	C9H6O2-
147.0451	30	C9H7O2-
149.0247	147	C8H5O3-
150.0317	71	C8H6O3-
151.0401	336	C8H7O3-
157.0658	18	C11H9O-
159.045	116	C10H7O2-
160.0526	61	C10H8O2-
161.0246	44	C9H5O3-
161.0607	146	C10H9O2-
162.0326	43	C9H6O3-
163.0396	59	C9H7O3-
164.0117	116	C8H4O4-
165.0195	72	C8H5O4-
167.0349	19	C8H7O4-
173.0613	56	C11H9O2-
174.0328	23	C10H6O3-
175.0405	35	C10H7O3-
175.0763	100	C11H11O2-
177.0559	29	C10H9O3-
179.0355	36	C9H7O4-
185.0615	32	C12H9O2-
187.04	129	C11H7O3-
188.0483	87	C11H8O3-
199.0763	19	C13H11O2-
201.056	44	C12H9O3-
202.0639	55	C12H10O3-
203.0715	207	C12H11O3-
205.0511	66	C11H9O4-
221.0821	122	C12H13O4-
