Mass spectrum: AO3114; LC-ESI-QFT; MS2; CE: 30%; R=17500; [M+H]+
Name: AO3114
Name: 1,3,5-Tris(3,5-di-tert-butyl-4-hydroxybenzyl)-1,3,5-triazinane-2,4,6-trione
Name: 1,3,5-tris[(3,5-ditert-butyl-4-hydroxyphenyl)methyl]-1,3,5-triazinane-2,4,6-trione
Formula: C48H69N3O6
Exact mass: 783.5186
SMILES: CC(C)(C)C1=CC(=CC(=C1O)C(C)(C)C)CN2C(=O)N(C(=O)N(C2=O)CC3=CC(=C(C(=C3)C(C)(C)C)O)C(C)(C)C)CC4=CC(=C(C(=C4)C(C)(C)C)O)C(C)(C)C
InChI: InChI=1S/C48H69N3O6/c1-43(2,3)31-19-28(20-32(37(31)52)44(4,5)6)25-49-40(55)50(26-29-21-33(45(7,8)9)38(53)34(22-29)46(10,11)12)42(57)51(41(49)56)27-30-23-35(47(13,14)15)39(54)36(24-30)48(16,17)18/h19-24,52-54H,25-27H2,1-18H3
Instrument: Exploris 240 Orbitrap Thermo Scientific
Instrument type: LC-ESI-QFT
Ms type: MS2
Ion mode: POSITIVE
Ionization: ESI
Fragmentation mode: HCD
Collision energy: 30 % (nominal)
Resolution: 17500
Column name: XBridge C18 3.5um, 2.1x50mm, Waters
Retention time: 18.463 min
Base peak: 784.5259
Precursor m/z: 784.5259
Precursor type: [M+H]+
m/z	relative intensity	assigned
219.1744	999	C15H23O+
