Mass spectrum: Aureusidin; LC-ESI-QFT; MS2; CE: 60%; R=17500; [M-H]-
Name: Aureusidin
Name: 2-[(3,4-Dihydroxyphenyl)methylidene]-4,6-dihydroxy-3-benzofuranone
Name: 2-[(3,4-dihydroxyphenyl)methylidene]-4,6-dihydroxy-1-benzofuran-3-one
Formula: C15H10O6
Exact mass: 286.04773804
SMILES: C1=CC(=C(C=C1C=C2C(=O)C3=C(C=C(C=C3O2)O)O)O)O
InChI: InChI=1S/C15H10O6/c16-8-5-11(19)14-12(6-8)21-13(15(14)20)4-7-1-2-9(17)10(18)3-7/h1-6,16-19H
Instrument: Exploris 240 Orbitrap Thermo Scientific
Instrument type: LC-ESI-QFT
Ms type: MS2
Ion mode: NEGATIVE
Ionization: ESI
Fragmentation mode: HCD
Collision energy: 60 % (nominal)
Resolution: 17500
Column name: XBridge C18 3.5um, 2.1x50mm, Waters
Retention time: 5.259 min
Base peak: 285.0403
Precursor m/z: 285.0405
Precursor type: [M-H]-
m/z	relative intensity	assigned
63.024	69	C5H3-
65.0032	145	C4HO-
83.0138	82	C4H3O2-
95.0136	20	C5H3O2-
105.0344	37	C7H5O-
107.0138	209	C6H3O2-
109.0293	20	C6H5O2-
119.0502	18	C8H7O-
121.0297	48	C7H5O2-
125.0245	26	C6H5O3-
133.0294	999	C8H5O2-
135.0087	11	C7H3O3-
135.0452	105	C8H7O2-
143.0503	33	C10H7O-
145.0291	16	C9H5O2-
147.0454	50	C9H7O2-
148.0165	15	C8H4O3-
149.0244	108	C8H5O3-
151.0036	365	C7H3O4-
157.0294	22	C10H5O2-
157.0659	30	C11H9O-
159.0453	28	C10H7O2-
161.0612	21	C10H9O2-
167.0503	27	C12H7O-
169.0661	20	C12H9O-
170.0374	14	C11H6O2-
171.0449	75	C11H7O2-
173.0239	23	C10H5O3-
173.0608	20	C11H9O2-
174.0329	31	C10H6O3-
175.0397	149	C10H7O3-
176.0119	30	C9H4O4-
177.0193	39	C9H5O4-
183.0452	17	C12H7O2-
185.061	98	C12H9O2-
187.0406	32	C11H7O3-
189.056	53	C11H9O3-
195.0449	32	C13H7O2-
196.0533	15	C13H8O2-
197.0604	16	C13H9O2-
198.0315	39	C12H6O3-
199.0402	150	C12H7O3-
201.0199	44	C11H5O4-
201.056	21	C12H9O3-
212.0485	24	C13H8O3-
213.0557	54	C13H9O3-
215.0346	45	C12H7O4-
217.05	47	C12H9O4-
227.0354	15	C13H7O4-
229.0506	89	C13H9O4-
239.0354	27	C14H7O4-
240.0431	25	C14H8O4-
241.0506	49	C14H9O4-
256.0387	30	C14H8O5-
257.0462	59	C14H9O5-
268.0375	25	C15H8O5-
284.0315	16	C15H8O6-
285.0405	315	C15H9O6-
