Mass spectrum: Hexadecyl gallate; LC-ESI-QFT; MS2; CE: 90%; R=17500; [M-H]-
Name: Hexadecyl gallate
Name: Cetyl gallate
Name: hexadecyl 3,4,5-trihydroxybenzoate
Formula: C23H38O5
Exact mass: 394.271924316
SMILES: CCCCCCCCCCCCCCCCOC(=O)C1=CC(=C(C(=C1)O)O)O
InChI: InChI=1S/C23H38O5/c1-2-3-4-5-6-7-8-9-10-11-12-13-14-15-16-28-23(27)19-17-20(24)22(26)21(25)18-19/h17-18,24-26H,2-16H2,1H3
Instrument: Exploris 240 Orbitrap Thermo Scientific
Instrument type: LC-ESI-QFT
Ms type: MS2
Ion mode: NEGATIVE
Ionization: ESI
Fragmentation mode: HCD
Collision energy: 90 % (nominal)
Resolution: 17500
Column name: XBridge C18 3.5um, 2.1x50mm, Waters
Retention time: 17.946 min
Base peak: 393.2644
Precursor m/z: 393.2646
Precursor type: [M-H]-
m/z	relative intensity	assigned
67.019	11	C4H3O-
69.0345	12	C4H5O-
78.0111	240	C5H2O-
79.0191	27	C5H3O-
81.0343	18	C5H5O-
82.006	11	C4H2O2-
86.0011	5	C3H2O3-
95.0137	11	C5H3O2-
97.0293	12	C5H5O2-
106.0059	34	C6H2O2-
107.0135	5	C6H3O2-
111.0087	32	C5H3O3-
123.0087	55	C6H3O3-
124.0165	999	C6H4O3-
125.0244	241	C6H5O3-
127.0034	18	C5H3O4-
136.9882	18	C6HO4-
139.0036	29	C6H3O4-
140.0113	57	C6H4O4-
