Mass spectrum: DG; LC-ESI-QFT; MS2; CE: 180%; R=17500; [M-H]-
Name: DG
Name: Dodecyl gallate
Name: dodecyl 3,4,5-trihydroxybenzoate
Formula: C19H30O5
Exact mass: 338.2093
SMILES: CCCCCCCCCCCCOC(=O)C1=CC(=C(C(=C1)O)O)O
InChI: InChI=1S/C19H30O5/c1-2-3-4-5-6-7-8-9-10-11-12-24-19(23)15-13-16(20)18(22)17(21)14-15/h13-14,20-22H,2-12H2,1H3
Instrument: Exploris 240 Orbitrap Thermo Scientific
Instrument type: LC-ESI-QFT
Ms type: MS2
Ion mode: NEGATIVE
Ionization: ESI
Fragmentation mode: HCD
Collision energy: 180 % (nominal)
Resolution: 17500
Column name: XBridge C18 3.5um, 2.1x50mm, Waters
Retention time: 15.179 min
Base peak: 337.202
Precursor m/z: 337.202
Precursor type: [M-H]-
m/z	relative intensity	assigned
65.0032	255	C4HO-
67.0189	58	C4H3O-
78.011	144	C5H2O-
95.014	80	C5H3O2-
202.0789	999	C16H10-
