Mass spectrum: 2'-deoxy-8-oxoguanosine; LC-ESI-QFT; MS2; CE: 120%; R=17500; [M+H]+
Name: 2'-deoxy-8-oxoguanosine
Name: CID 3964517
Name: 2-amino-9-[4-hydroxy-5-(hydroxymethyl)oxolan-2-yl]-3,7-dihydropurine-6,8-dione
Formula: C10H13N5O5
Exact mass: 283.0916685
SMILES: C1C(C(OC1N2C3=C(C(=O)NC(=N3)N)NC2=O)CO)O
InChI: InChI=1S/C10H13N5O5/c11-9-13-7-6(8(18)14-9)12-10(19)15(7)5-1-3(17)4(2-16)20-5/h3-5,16-17H,1-2H2,(H,12,19)(H3,11,13,14,18)
Instrument: Exploris 240 Orbitrap Thermo Scientific
Instrument type: LC-ESI-QFT
Ms type: MS2
Ion mode: POSITIVE
Ionization: ESI
Fragmentation mode: HCD
Collision energy: 120 % (nominal)
Resolution: 17500
Column name: XBridge C18 3.5um, 2.1x50mm, Waters
Retention time: 1.975 min
Base peak: 284.099
Precursor m/z: 284.0989
Precursor type: [M+H]+
m/z	relative intensity	assigned
53.0388	162	C4H5+
55.0291	811	C2H3N2+
68.0244	488	C2H2N3+
69.0084	999	C2HN2O+
69.0335	446	C4H5O+
70.04	689	C2H4N3+
73.0283	173	C3H5O2+
80.0242	70	C3H2N3+
81.0334	48	C5H5O+
86.035	139	C2H4N3O+
95.0355	133	C3H3N4+
96.0193	110	C3H2N3O+
98.0349	395	C3H4N3O+
112.0617	731	C3H6N5+
113.0461	71	C3H5N4O+
123.0303	517	C4H3N4O+
140.0565	202	C4H6N5O+
151.025	184	C5H3N4O2+
