Mass spectrum: Ellagic Acid; LC-ESI-QFT; MS2; CE: 150%; R=17500; [M+H]+
Name: Ellagic Acid
Name: 6,7,13,14-tetrahydroxy-2,9-dioxatetracyclo[6.6.2.04,16.011,15]hexadeca-1(15),4,6,8(16),11,13-hexaene-3,10-dione
Formula: C14H6O8
Exact mass: 302.0062672
SMILES: C1=C2C3=C(C(=C1O)O)OC(=O)C4=CC(=C(C(=C43)OC2=O)O)O
InChI: InChI=1S/C14H6O8/c15-5-1-3-7-8-4(14(20)22-11(7)9(5)17)2-6(16)10(18)12(8)21-13(3)19/h1-2,15-18H
Instrument: Exploris 240 Orbitrap Thermo Scientific
Instrument type: LC-ESI-QFT
Ms type: MS2
Ion mode: POSITIVE
Ionization: ESI
Fragmentation mode: HCD
Collision energy: 150 % (nominal)
Resolution: 17500
Column name: XBridge C18 3.5um, 2.1x50mm, Waters
Retention time: 4.941 min
Base peak: 132.9582
Precursor m/z: 303.0135
Precursor type: [M+H]+
m/z	relative intensity	assigned
50.0151	11	C4H2+
51.0229	138	C4H3+
53.0022	79	C3HO+
53.0385	32	C4H5+
55.0178	13	C3H3O+
62.0151	38	C5H2+
63.0229	999	C5H3+
65.0386	115	C5H5+
68.997	59	C3HO2+
74.0152	38	C6H2+
75.0229	359	C6H3+
77.0021	158	C5HO+
77.0386	104	C6H5+
78.0466	16	C6H6+
79.0177	19	C5H3O+
79.0542	26	C6H7+
87.0229	32	C7H3+
89.0385	771	C7H5+
91.0543	23	C7H7+
95.0491	30	C6H7O+
98.015	83	C8H2+
99.0229	262	C8H3+
101.0387	33	C8H5+
103.0177	36	C7H3O+
117.0331	41	C8H5O+
127.0178	42	C9H3O+
145.0286	53	C9H5O2+
