Mass spectrum: AO22E46; LC-ESI-QFT; MS2; CE: 90%; R=17500; [M-H]-
Name: AO22E46
Name: 2,2`-Ethylidenebis(4,6-di-tert-butylphenol)
Name: 2,4-ditert-butyl-6-[1-(3,5-ditert-butyl-2-hydroxyphenyl)ethyl]phenol
Formula: C30H46O2
Exact mass: 438.3498
SMILES: CC(C1=C(C(=CC(=C1)C(C)(C)C)C(C)(C)C)O)C2=C(C(=CC(=C2)C(C)(C)C)C(C)(C)C)O
InChI: InChI=1S/C30H46O2/c1-18(21-14-19(27(2,3)4)16-23(25(21)31)29(8,9)10)22-15-20(28(5,6)7)17-24(26(22)32)30(11,12)13/h14-18,31-32H,1-13H3
Instrument: Exploris 240 Orbitrap Thermo Scientific
Instrument type: LC-ESI-QFT
Ms type: MS2
Ion mode: NEGATIVE
Ionization: ESI
Fragmentation mode: HCD
Collision energy: 90 % (nominal)
Resolution: 17500
Column name: XBridge C18 3.5um, 2.1x50mm, Waters
Retention time: 18.030 min
Base peak: 437.3423
Precursor m/z: 437.3425
Precursor type: [M-H]-
m/z	relative intensity	assigned
189.1285	143	C13H17O-
202.0787	203	C16H10-
205.1597	999	C14H21O-
