Mass spectrum: Homoanatoxin-a; LC-ESI-QFT; MS2; CE: 45%; R=17500; [M+H]+
Name: Homoanatoxin-a
Name: 1-[(1R,6R)-9-azabicyclo[4.2.1]non-2-en-2-yl]propan-1-one
Formula: C11H17NO
Exact mass: 179.1310142
SMILES: CCC(=O)C1=CCC[C@@H]2CC[C@H]1N2
InChI: InChI=1S/C11H17NO/c1-2-11(13)9-5-3-4-8-6-7-10(9)12-8/h5,8,10,12H,2-4,6-7H2,1H3/t8-,10-/m1/s1
Instrument: Exploris 240 Orbitrap Thermo Scientific
Instrument type: LC-ESI-QFT
Ms type: MS2
Ion mode: POSITIVE
Ionization: ESI
Fragmentation mode: HCD
Collision energy: 45 % (nominal)
Resolution: 17500
Column name: XBridge C18 3.5um, 2.1x50mm, Waters
Retention time: 2.548 min
Base peak: 180.1381
Precursor m/z: 180.1383
Precursor type: [M+H]+
m/z	relative intensity	assigned
57.0335	486	C3H5O+
59.049	8	C3H7O+
68.0495	19	C4H6N+
79.0543	19	C6H7+
80.0494	22	C5H6N+
85.0649	11	C5H9O+
91.0543	105	C7H7+
93.0699	35	C7H9+
95.0858	33	C7H11+
105.07	57	C8H9+
106.065	48	C7H8N+
107.0857	65	C8H11+
108.0808	27	C7H10N+
113.0958	11	C7H13O+
117.07	38	C9H9+
119.0853	27	C9H11+
121.1014	27	C9H13+
124.1119	27	C8H14N+
135.1168	145	C10H15+
137.0962	24	C9H13O+
145.1013	267	C11H13+
162.1282	32	C11H16N+
163.1119	602	C11H15O+
180.1384	999	C11H18NO+
