Mass spectrum: 6PPD-Quinone; LC-ESI-QFT; MS2; CE: 150%; R=17500; [M+H]+
Name: 6PPD-Quinone
Name: 2-anilino-5-(4-methylpentan-2-ylamino)cyclohexa-2,5-diene-1,4-dione
Formula: C18H22N2O2
Exact mass: 298.1681279
SMILES: CC(C)CC(C)NC1=CC(=O)C(=CC1=O)NC2=CC=CC=C2
InChI: InChI=1S/C18H22N2O2/c1-12(2)9-13(3)19-15-10-18(22)16(11-17(15)21)20-14-7-5-4-6-8-14/h4-8,10-13,19-20H,9H2,1-3H3
Instrument: Exploris 240 Orbitrap Thermo Scientific
Instrument type: LC-ESI-QFT
Ms type: MS2
Ion mode: POSITIVE
Ionization: ESI
Fragmentation mode: HCD
Collision energy: 150 % (nominal)
Resolution: 17500
Column name: XBridge C18 3.5um, 2.1x50mm, Waters
Retention time: 11.329 min
Base peak: 299.175
Precursor m/z: 299.1754
Precursor type: [M+H]+
m/z	relative intensity	assigned
51.0229	350	C4H3+
53.0386	271	C4H5+
54.0339	106	C3H4N+
55.018	105	C3H3O+
55.0417	39	C3H5N+
65.0386	226	C5H5+
66.0339	121	C4H4N+
66.0465	107	C5H6+
67.0418	84	C4H5N+
68.013	330	C3H2NO+
70.0288	72	C3H4NO+
77.0386	999	C6H5+
78.0464	56	C6H6+
81.0337	38	C5H5O+
81.0445	39	C4H5N2+
82.0525	377	C4H6N2+
89.0384	167	C7H5+
90.0461	54	C7H6+
91.0542	419	C7H7+
92.0495	59	C6H6N+
93.0573	370	C6H7N+
95.0492	302	C6H7O+
103.0545	57	C8H7+
104.0497	77	C7H6N+
105.0448	367	C6H5N2+
111.0551	123	C5H7N2O+
115.0542	537	C9H7+
116.0496	130	C8H6N+
117.0574	240	C8H7N+
118.0653	85	C8H8N+
127.0541	63	C10H7+
128.0491	212	C9H6N+
129.0451	65	C8H5N2+
130.0653	131	C9H8N+
140.0494	80	C10H6N+
143.0731	126	C10H9N+
155.0608	55	C10H7N2+
