Mass spectrum: Aureusidin; LC-ESI-QFT; MS2; CE: 45%; R=17500; [M-H]-
Name: Aureusidin
Name: 2-[(3,4-Dihydroxyphenyl)methylidene]-4,6-dihydroxy-3-benzofuranone
Name: 2-[(3,4-dihydroxyphenyl)methylidene]-4,6-dihydroxy-1-benzofuran-3-one
Formula: C15H10O6
Exact mass: 286.04773804
SMILES: C1=CC(=C(C=C1C=C2C(=O)C3=C(C=C(C=C3O2)O)O)O)O
InChI: InChI=1S/C15H10O6/c16-8-5-11(19)14-12(6-8)21-13(15(14)20)4-7-1-2-9(17)10(18)3-7/h1-6,16-19H
Instrument: Exploris 240 Orbitrap Thermo Scientific
Instrument type: LC-ESI-QFT
Ms type: MS2
Ion mode: NEGATIVE
Ionization: ESI
Fragmentation mode: HCD
Collision energy: 45 % (nominal)
Resolution: 17500
Column name: XBridge C18 3.5um, 2.1x50mm, Waters
Retention time: 5.259 min
Base peak: 285.0403
Precursor m/z: 285.0405
Precursor type: [M-H]-
m/z	relative intensity	assigned
65.0032	7	C4HO-
83.0139	8	C4H3O2-
107.0138	29	C6H3O2-
125.0241	4	C6H5O3-
133.0295	95	C8H5O2-
135.045	30	C8H7O2-
147.0454	8	C9H7O2-
149.0244	25	C8H5O3-
151.0036	120	C7H3O4-
169.0657	7	C12H9O-
171.0457	15	C11H7O2-
173.0608	6	C11H9O2-
174.0324	4	C10H6O3-
175.04	53	C10H7O3-
177.0191	15	C9H5O4-
185.0608	21	C12H9O2-
187.0408	4	C11H7O3-
189.0554	13	C11H9O3-
197.0607	8	C13H9O2-
198.0322	10	C12H6O3-
199.0399	60	C12H7O3-
201.0197	14	C11H5O4-
211.041	8	C13H7O3-
212.0481	5	C13H8O3-
213.0555	31	C13H9O3-
215.0352	19	C12H7O4-
217.0501	31	C12H9O4-
229.0505	24	C13H9O4-
239.0343	10	C14H7O4-
241.0503	49	C14H9O4-
243.0299	17	C13H7O5-
256.0377	8	C14H8O5-
257.0453	47	C14H9O5-
267.0299	14	C15H7O5-
284.0334	5	C15H8O6-
285.0404	999	C15H9O6-
