Mass spectrum: (-)-Epigallocatechin Gallate; LC-ESI-QFT; MS2; CE: 60%; R=17500; [M+H]+
Name: (-)-Epigallocatechin Gallate
Name: Tea, ext.
Name: [5,7-dihydroxy-2-(3,4,5-trihydroxyphenyl)-3,4-dihydro-2H-chromen-3-yl] 3,4,5-trihydroxybenzoate
Formula: C22H18O11
Exact mass: 458.0849114
SMILES: C1C(C(OC2=CC(=CC(=C21)O)O)C3=CC(=C(C(=C3)O)O)O)OC(=O)C4=CC(=C(C(=C4)O)O)O
InChI: InChI=1S/C22H18O11/c23-10-5-12(24)11-7-18(33-22(31)9-3-15(27)20(30)16(28)4-9)21(32-17(11)6-10)8-1-13(25)19(29)14(26)2-8/h1-6,18,21,23-30H,7H2
Instrument: Exploris 240 Orbitrap Thermo Scientific
Instrument type: LC-ESI-QFT
Ms type: MS2
Ion mode: POSITIVE
Ionization: ESI
Fragmentation mode: HCD
Collision energy: 60 % (nominal)
Resolution: 17500
Column name: XBridge C18 3.5um, 2.1x50mm, Waters
Retention time: 3.432 min
Base peak: 132.9582
Precursor m/z: 459.0922
Precursor type: [M+H]+
m/z	relative intensity	assigned
53.0023	7	C3HO+
65.0385	14	C5H5+
68.9971	5	C3HO2+
79.0177	7	C5H3O+
93.0334	5	C6H5O+
95.0491	4	C6H7O+
111.0441	8	C6H7O2+
121.0287	21	C7H5O2+
123.0439	49	C7H7O2+
125.0233	7	C6H5O3+
133.029	4	C8H5O2+
135.0438	7	C8H7O2+
139.039	999	C7H7O3+
143.034	9	C6H7O4+
149.0594	6	C9H9O2+
151.0388	38	C8H7O3+
153.0177	127	C7H5O4+
163.0389	45	C9H7O3+
177.0548	7	C10H9O3+
205.05	12	C11H9O4+
