Mass spectrum: AO1098; LC-ESI-QFT; MS2; CE: 75%; R=17500; [M+H]+
Name: AO1098
Name: Benzenepropanamide, N,N`-1,6-hexanediylbis(3,5-bis(1,1-dimethylethyl)-4-hydroxy-
Name: 3-(3,5-ditert-butyl-4-hydroxyphenyl)-N-[6-[3-(3,5-ditert-butyl-4-hydroxyphenyl)propanoylamino]hexyl]propanamide
Formula: C40H64N2O4
Exact mass: 636.4866
SMILES: CC(C)(C)C1=CC(=CC(=C1O)C(C)(C)C)CCC(=O)NCCCCCCNC(=O)CCC2=CC(=C(C(=C2)C(C)(C)C)O)C(C)(C)C
InChI: InChI=1S/C40H64N2O4/c1-37(2,3)29-23-27(24-30(35(29)45)38(4,5)6)17-19-33(43)41-21-15-13-14-16-22-42-34(44)20-18-28-25-31(39(7,8)9)36(46)32(26-28)40(10,11)12/h23-26,45-46H,13-22H2,1-12H3,(H,41,43)(H,42,44)
Instrument: Exploris 240 Orbitrap Thermo Scientific
Instrument type: LC-ESI-QFT
Ms type: MS2
Ion mode: POSITIVE
Ionization: ESI
Fragmentation mode: HCD
Collision energy: 75 % (nominal)
Resolution: 17500
Column name: XBridge C18 3.5um, 2.1x50mm, Waters
Retention time: 15.357 min
Base peak: 637.4934
Precursor m/z: 637.4939
Precursor type: [M+H]+
m/z	relative intensity	assigned
83.0855	104	C6H11+
100.112	999	C6H14N+
107.0491	265	C7H7O+
117.1386	68	C6H17N2+
147.0805	116	C10H11O+
149.0599	60	C9H9O2+
163.1117	567	C11H15O+
202.0776	140	C16H10+
203.143	138	C14H19O+
219.1744	242	C15H23O+
