Mass spectrum: 2`-deoxy-8-oxoguanosine; LC-ESI-QFT; MS2; CE: 90%; R=17500; [M-H]-
Name: 2`-deoxy-8-oxoguanosine
Name: CID 3964517
Name: 2-amino-9-[4-hydroxy-5-(hydroxymethyl)oxolan-2-yl]-3,7-dihydropurine-6,8-dione
Formula: C10H13N5O5
Exact mass: 283.091668516
SMILES: C1C(C(OC1N2C3=C(C(=O)NC(=N3)N)NC2=O)CO)O
InChI: InChI=1S/C10H13N5O5/c11-9-13-7-6(8(18)14-9)12-10(19)15(7)5-1-3(17)4(2-16)20-5/h3-5,16-17H,1-2H2,(H,12,19)(H3,11,13,14,18)
Instrument: Exploris 240 Orbitrap Thermo Scientific
Instrument type: LC-ESI-QFT
Ms type: MS2
Ion mode: NEGATIVE
Ionization: ESI
Fragmentation mode: HCD
Collision energy: 90 % (nominal)
Resolution: 17500
Column name: XBridge C18 3.5um, 2.1x50mm, Waters
Retention time: 1.964 min
Base peak: 282.0843
Precursor m/z: 282.0844
Precursor type: [M-H]-
m/z	relative intensity	assigned
66.0098	999	C2N3-
67.0302	448	C3H3N2-
69.0096	27	C2HN2O-
79.0177	54	C3HN3-
79.0302	54	C4H3N2-
81.0095	39	C3HN2O-
93.0207	37	C3HN4-
94.0297	42	C5H4NO-
94.0412	39	C4H4N3-
95.025	267	C4H3N2O-
96.0204	67	C3H2N3O-
106.0047	44	C4N3O-
106.0413	34	C5H4N3-
109.041	30	C5H5N2O-
120.0206	42	C5H2N3O-
121.0158	47	C4HN4O-
122.0237	170	C4H2N4O-
122.0362	235	C5H4N3O-
123.0075	479	C4HN3O2-
123.0197	41	C5H3N2O2-
123.0306	25	C4H3N4O-
124.0153	49	C4H2N3O2-
148.0033	38	C5N4O2-
149.0233	36	C6H3N3O2-
149.0473	60	C6H5N4O-
150.0306	152	C6H4N3O2-
165.0296	44	C5H3N5O2-
175.0261	32	C7H3N4O2-
