Mass spectrum: Bis(4-Octylphenyl)Amine; LC-ESI-QFT; MS2; CE: 15%; R=17500; [M+H]+
Name: Bis(4-Octylphenyl)Amine
Name: 4-octyl-N-(4-octylphenyl)aniline
Formula: C28H43N
Exact mass: 393.3395504
SMILES: CCCCCCCCC1=CC=C(C=C1)NC2=CC=C(C=C2)CCCCCCCC
InChI: InChI=1S/C28H43N/c1-3-5-7-9-11-13-15-25-17-21-27(22-18-25)29-28-23-19-26(20-24-28)16-14-12-10-8-6-4-2/h17-24,29H,3-16H2,1-2H3
Instrument: Exploris 240 Orbitrap Thermo Scientific
Instrument type: LC-ESI-QFT
Ms type: MS2
Ion mode: POSITIVE
Ionization: ESI
Fragmentation mode: HCD
Collision energy: 15 % (nominal)
Resolution: 17500
Column name: XBridge C18 3.5um, 2.1x50mm, Waters
Retention time: 22.369 min
Base peak: 394.3466
Precursor m/z: 394.3468
Precursor type: [M+H]+
m/z	relative intensity	assigned
394.3469	999	C28H44N+
