Mass spectrum: Ellagic Acid; LC-ESI-QFT; MS2; CE: 45%; R=17500; [M-H]-
Name: Ellagic Acid
Name: 6,7,13,14-tetrahydroxy-2,9-dioxatetracyclo[6.6.2.04,16.011,15]hexadeca-1(15),4,6,8(16),11,13-hexaene-3,10-dione
Formula: C14H6O8
Exact mass: 302.006267152
SMILES: C1=C2C3=C(C(=C1O)O)OC(=O)C4=CC(=C(C(=C43)OC2=O)O)O
InChI: InChI=1S/C14H6O8/c15-5-1-3-7-8-4(14(20)22-11(7)9(5)17)2-6(16)10(18)12(8)21-13(3)19/h1-2,15-18H
Instrument: Exploris 240 Orbitrap Thermo Scientific
Instrument type: LC-ESI-QFT
Ms type: MS2
Ion mode: NEGATIVE
Ionization: ESI
Fragmentation mode: HCD
Collision energy: 45 % (nominal)
Resolution: 17500
Column name: XBridge C18 3.5um, 2.1x50mm, Waters
Retention time: 4.930 min
Base peak: 300.9989
Precursor m/z: 300.999
Precursor type: [M-H]-
m/z	relative intensity	assigned
157.0294	2	C10H5O2-
173.0241	5	C10H5O3-
185.0246	15	C11H5O3-
201.0191	13	C11H5O4-
213.0193	2	C12H5O4-
229.0143	44	C12H5O5-
245.0089	10	C12H5O6-
254.9932	3	C13H3O6-
257.0091	37	C13H5O6-
273.004	6	C13H5O7-
283.9968	23	C14H4O7-
299.9912	24	C14H4O8-
300.9989	999	C14H5O8-
