Mass spectrum: UV-PS; LC-ESI-QFT; MS2; CE: 90%; R=17500; [M+H]+
Name: UV-PS
Name: 2-(benzotriazol-2-yl)-4-tert-butylphenol
Formula: C16H17N3O
Exact mass: 267.1371622
SMILES: CC(C)(C)C1=CC(=C(C=C1)O)N2N=C3C=CC=CC3=N2
InChI: InChI=1S/C16H17N3O/c1-16(2,3)11-8-9-15(20)14(10-11)19-17-12-6-4-5-7-13(12)18-19/h4-10,20H,1-3H3
Instrument: Exploris 240 Orbitrap Thermo Scientific
Instrument type: LC-ESI-QFT
Ms type: MS2
Ion mode: POSITIVE
Ionization: ESI
Fragmentation mode: HCD
Collision energy: 90 % (nominal)
Resolution: 17500
Column name: XBridge C18 3.5um, 2.1x50mm, Waters
Retention time: 15.802 min
Base peak: 268.1445
Precursor m/z: 268.1444
Precursor type: [M+H]+
m/z	relative intensity	assigned
57.0699	999	C4H9+
65.0386	462	C5H5+
77.0386	16	C6H5+
79.0542	52	C6H7+
80.0495	69	C5H6N+
91.0416	45	C6H5N+
91.0543	151	C7H7+
92.0496	290	C6H6N+
93.0334	80	C6H5O+
93.0698	29	C7H9+
94.0416	25	C6H6O+
103.0542	19	C8H7+
105.0448	44	C6H5N2+
105.07	57	C8H9+
106.0527	31	C6H6N2+
107.0605	50	C6H7N2+
109.0649	93	C7H9O+
115.0541	17	C9H7+
119.0608	25	C7H7N2+
120.0557	265	C6H6N3+
121.065	47	C8H9O+
128.0617	63	C10H8+
129.0699	72	C10H9+
133.0648	45	C9H9O+
133.0761	33	C8H9N2+
134.0727	43	C9H10O+
139.0544	89	C11H7+
140.0498	26	C10H6N+
154.0655	56	C11H8N+
155.0733	18	C11H9N+
166.0656	54	C12H8N+
167.0735	74	C12H9N+
183.068	59	C12H9NO+
210.0915	16	C14H12NO+
212.0821	35	C12H10N3O+
