Mass spectrum: Irganox 1222; LC-ESI-QFT; MS2; CE: 120%; R=17500; [M+H]+
Name: Irganox 1222
Name: Diethyl ((3,5-bis(1,1-dimethylethyl)-4-hydroxyphenyl)methyl)phosphonate
Name: 2,6-ditert-butyl-4-(diethoxyphosphorylmethyl)phenol
Formula: C19H33O4P
Exact mass: 356.2116462
SMILES: CCOP(=O)(CC1=CC(=C(C(=C1)C(C)(C)C)O)C(C)(C)C)OCC
InChI: InChI=1S/C19H33O4P/c1-9-22-24(21,23-10-2)13-14-11-15(18(3,4)5)17(20)16(12-14)19(6,7)8/h11-12,20H,9-10,13H2,1-8H3
Instrument: Exploris 240 Orbitrap Thermo Scientific
Instrument type: LC-ESI-QFT
Ms type: MS2
Ion mode: POSITIVE
Ionization: ESI
Fragmentation mode: HCD
Collision energy: 120 % (nominal)
Resolution: 17500
Column name: XBridge C18 3.5um, 2.1x50mm, Waters
Retention time: 13.021 min
Base peak: 357.2186
Precursor m/z: 357.2189
Precursor type: [M+H]+
m/z	relative intensity	assigned
53.0385	46	C4H5+
55.0179	33	C3H3O+
55.0542	31	C4H7+
57.0699	101	C4H9+
65.0385	48	C5H5+
67.0542	30	C5H7+
69.07	14	C5H9+
77.0385	107	C6H5+
79.0542	162	C6H7+
81.0698	18	C6H9+
91.0542	549	C7H7+
93.07	40	C7H9+
95.0493	36	C6H7O+
103.0543	34	C8H7+
104.0619	22	C8H8+
105.0698	149	C8H9+
107.0491	999	C7H7O+
115.0543	46	C9H7+
117.0695	57	C9H9+
119.0492	133	C8H7O+
119.0854	82	C9H11+
128.0624	28	C10H8+
129.0698	39	C10H9+
131.0857	26	C10H11+
132.0572	17	C9H8O+
133.0647	41	C9H9O+
133.1009	33	C10H13+
145.1012	41	C11H13+
147.0804	158	C10H11O+
163.1121	17	C11H15O+
173.0962	16	C12H13O+
