Mass spectrum: 2,2'-Dihydroxy-4,4'-dimethoxybenzophenone; LC-ESI-QFT; MS2; CE: 120%; R=17500; [M+H]+
Name: 2,2'-Dihydroxy-4,4'-dimethoxybenzophenone
Name: Benzophenone-6
Name: bis(2-hydroxy-4-methoxyphenyl)methanone
Formula: C15H14O5
Exact mass: 274.0841235
SMILES: COC1=CC(=C(C=C1)C(=O)C2=C(C=C(C=C2)OC)O)O
InChI: InChI=1S/C15H14O5/c1-19-9-3-5-11(13(16)7-9)15(18)12-6-4-10(20-2)8-14(12)17/h3-8,16-17H,1-2H3
Instrument: Exploris 240 Orbitrap Thermo Scientific
Instrument type: LC-ESI-QFT
Ms type: MS2
Ion mode: POSITIVE
Ionization: ESI
Fragmentation mode: HCD
Collision energy: 120 % (nominal)
Resolution: 17500
Column name: XBridge C18 3.5um, 2.1x50mm, Waters
Retention time: 10.015 min
Base peak: 275.0912
Precursor m/z: 275.0914
Precursor type: [M+H]+
m/z	relative intensity	assigned
50.0152	55	C4H2+
51.0228	73	C4H3+
52.0307	527	C4H4+
55.0179	132	C3H3O+
65.0386	795	C5H5+
67.0542	174	C5H7+
68.9971	109	C3HO2+
77.0389	32	C6H5+
79.018	24	C5H3O+
80.0257	423	C5H4O+
93.0338	20	C6H5O+
95.0492	999	C6H7O+
98.0363	39	C5H6O2+
108.0206	722	C6H4O2+
115.0542	68	C9H7+
123.0439	36	C7H7O2+
136.0152	17	C7H4O3+
151.0391	184	C8H7O3+
