Mass spectrum: Homoanatoxin-a; LC-ESI-QFT; MS2; CE: 60%; R=17500; [M+H]+
Name: Homoanatoxin-a
Name: 1-[(1R,6R)-9-azabicyclo[4.2.1]non-2-en-2-yl]propan-1-one
Formula: C11H17NO
Exact mass: 179.1310142
SMILES: CCC(=O)C1=CCC[C@@H]2CC[C@H]1N2
InChI: InChI=1S/C11H17NO/c1-2-11(13)9-5-3-4-8-6-7-10(9)12-8/h5,8,10,12H,2-4,6-7H2,1H3/t8-,10-/m1/s1
Instrument: Exploris 240 Orbitrap Thermo Scientific
Instrument type: LC-ESI-QFT
Ms type: MS2
Ion mode: POSITIVE
Ionization: ESI
Fragmentation mode: HCD
Collision energy: 60 % (nominal)
Resolution: 17500
Column name: XBridge C18 3.5um, 2.1x50mm, Waters
Retention time: 2.548 min
Base peak: 180.1381
Precursor m/z: 180.1383
Precursor type: [M+H]+
m/z	relative intensity	assigned
43.0179	15	C2H3O+
55.0542	14	C4H7+
56.0494	20	C3H6N+
57.0335	999	C3H5O+
59.0491	22	C3H7O+
67.0542	26	C5H7+
68.0495	38	C4H6N+
69.0699	9	C5H9+
79.0542	64	C6H7+
80.0497	36	C5H6N+
81.0699	23	C6H9+
82.0651	21	C5H8N+
91.0542	147	C7H7+
93.0698	114	C7H9+
95.0854	41	C7H11+
105.0697	65	C8H9+
106.0651	74	C7H8N+
107.0855	106	C8H11+
108.081	36	C7H10N+
117.0699	85	C9H9+
119.0856	38	C9H11+
121.1013	26	C9H13+
130.0778	14	C10H10+
135.1169	172	C10H15+
137.0963	22	C9H13O+
145.1013	263	C11H13+
162.1271	38	C11H16N+
163.1119	307	C11H15O+
180.1383	271	C11H18NO+
