Mass spectrum: Taxifolin; LC-ESI-QFT; MS2; CE: 150%; R=17500; [M+H]+
Name: Taxifolin
Name: 3,5,7,3',4'-Pentahydroxyflavanone
Name: 2-(3,4-dihydroxyphenyl)-3,5,7-trihydroxy-2,3-dihydrochromen-4-one
Formula: C15H12O7
Exact mass: 304.0583027
SMILES: C1=CC(=C(C=C1C2C(C(=O)C3=C(C=C(C=C3O2)O)O)O)O)O
InChI: InChI=1S/C15H12O7/c16-7-4-10(19)12-11(5-7)22-15(14(21)13(12)20)6-1-2-8(17)9(18)3-6/h1-5,14-19,21H
Instrument: Exploris 240 Orbitrap Thermo Scientific
Instrument type: LC-ESI-QFT
Ms type: MS2
Ion mode: POSITIVE
Ionization: ESI
Fragmentation mode: HCD
Collision energy: 150 % (nominal)
Resolution: 17500
Column name: XBridge C18 3.5um, 2.1x50mm, Waters
Retention time: 4.381 min
Base peak: 305.0653
Precursor m/z: 305.0656
Precursor type: [M+H]+
m/z	relative intensity	assigned
50.0152	109	C4H2+
51.0229	999	C4H3+
53.0386	110	C4H5+
55.0178	154	C3H3O+
63.0229	212	C5H3+
65.0386	643	C5H5+
67.0177	28	C4H3O+
67.0541	36	C5H7+
68.9971	640	C3HO2+
69.0336	69	C4H5O+
75.0231	48	C6H3+
77.0386	557	C6H5+
78.0466	30	C6H6+
79.0178	53	C5H3O+
81.0334	36	C5H5O+
89.0385	259	C7H5+
91.0543	53	C7H7+
95.0493	101	C6H7O+
101.0389	17	C8H5+
102.0465	51	C8H6+
103.0544	59	C8H7+
115.0545	177	C9H7+
123.0441	77	C7H7O2+
127.0544	60	C10H7+
128.062	286	C10H8+
131.0495	34	C9H7O+
139.0539	177	C11H7+
