Mass spectrum: Hexadecyl gallate; LC-ESI-QFT; MS2; CE: 75%; R=17500; [M-H]-
Name: Hexadecyl gallate
Name: Cetyl gallate
Name: hexadecyl 3,4,5-trihydroxybenzoate
Formula: C23H38O5
Exact mass: 394.271924316
SMILES: CCCCCCCCCCCCCCCCOC(=O)C1=CC(=C(C(=C1)O)O)O
InChI: InChI=1S/C23H38O5/c1-2-3-4-5-6-7-8-9-10-11-12-13-14-15-16-28-23(27)19-17-20(24)22(26)21(25)18-19/h17-18,24-26H,2-16H2,1H3
Instrument: Exploris 240 Orbitrap Thermo Scientific
Instrument type: LC-ESI-QFT
Ms type: MS2
Ion mode: NEGATIVE
Ionization: ESI
Fragmentation mode: HCD
Collision energy: 75 % (nominal)
Resolution: 17500
Column name: XBridge C18 3.5um, 2.1x50mm, Waters
Retention time: 17.946 min
Base peak: 393.2644
Precursor m/z: 393.2646
Precursor type: [M-H]-
m/z	relative intensity	assigned
65.0034	4	C4HO-
67.0188	5	C4H3O-
69.0346	9	C4H5O-
78.0111	61	C5H2O-
79.019	10	C5H3O-
81.0346	10	C5H5O-
82.0062	14	C4H2O2-
83.0139	7	C4H3O2-
86.001	6	C3H2O3-
95.0141	4	C5H3O2-
97.0296	9	C5H5O2-
106.006	16	C6H2O2-
107.0137	4	C6H3O2-
110.001	9	C5H2O3-
111.0087	31	C5H3O3-
123.0088	39	C6H3O3-
124.0166	999	C6H4O3-
125.0244	289	C6H5O3-
127.004	13	C5H3O4-
136.9879	20	C6HO4-
139.0037	33	C6H3O4-
140.0115	55	C6H4O4-
169.0142	25	C7H5O5-
