Mass spectrum: Hexadecyl gallate; LC-ESI-QFT; MS2; CE: 90%; R=17500; [M+H]+
Name: Hexadecyl gallate
Name: Cetyl gallate
Name: hexadecyl 3,4,5-trihydroxybenzoate
Formula: C23H38O5
Exact mass: 394.2719243
SMILES: CCCCCCCCCCCCCCCCOC(=O)C1=CC(=C(C(=C1)O)O)O
InChI: InChI=1S/C23H38O5/c1-2-3-4-5-6-7-8-9-10-11-12-13-14-15-16-28-23(27)19-17-20(24)22(26)21(25)18-19/h17-18,24-26H,2-16H2,1H3
Instrument: Exploris 240 Orbitrap Thermo Scientific
Instrument type: LC-ESI-QFT
Ms type: MS2
Ion mode: POSITIVE
Ionization: ESI
Fragmentation mode: HCD
Collision energy: 90 % (nominal)
Resolution: 17500
Column name: XBridge C18 3.5um, 2.1x50mm, Waters
Retention time: 17.892 min
Base peak: 395.2793
Precursor m/z: 395.2792
Precursor type: [M+H]+
m/z	relative intensity	assigned
51.0231	44	C4H3+
53.0386	173	C4H5+
55.0179	88	C3H3O+
57.0699	188	C4H9+
69.0335	100	C4H5O+
71.0855	15	C5H11+
79.0179	188	C5H3O+
81.0335	999	C5H5O+
97.0284	79	C5H5O2+
107.0129	697	C6H3O2+
109.0285	402	C6H5O2+
125.0235	160	C6H5O3+
135.008	34	C7H3O3+
