Mass spectrum: 2,4-Dihydroxybenzophenone; LC-ESI-QFT; MS2; CE: 150%; R=17500; [M+H]+
Name: 2,4-Dihydroxybenzophenone
Name: (2,4-dihydroxyphenyl)-phenylmethanone
Formula: C13H10O3
Exact mass: 214.0629942
SMILES: C1=CC=C(C=C1)C(=O)C2=C(C=C(C=C2)O)O
InChI: InChI=1S/C13H10O3/c14-10-6-7-11(12(15)8-10)13(16)9-4-2-1-3-5-9/h1-8,14-15H
Instrument: Exploris 240 Orbitrap Thermo Scientific
Instrument type: LC-ESI-QFT
Ms type: MS2
Ion mode: POSITIVE
Ionization: ESI
Fragmentation mode: HCD
Collision energy: 150 % (nominal)
Resolution: 17500
Column name: XBridge C18 3.5um, 2.1x50mm, Waters
Retention time: 8.138 min
Base peak: 215.07
Precursor m/z: 215.0703
Precursor type: [M+H]+
m/z	relative intensity	assigned
50.0152	25	C4H2+
51.0229	477	C4H3+
53.0386	903	C4H5+
55.0179	33	C3H3O+
63.023	37	C5H3+
68.9971	534	C3HO2+
77.0386	668	C6H5+
81.0335	999	C5H5O+
94.0415	16	C6H6O+
95.0492	162	C6H7O+
115.0543	49	C9H7+
137.0232	46	C7H5O3+
