Mass spectrum: 2`-deoxy-8-oxoguanosine; LC-ESI-QFT; MS2; CE: 30%; R=17500; [M-H]-
Name: 2`-deoxy-8-oxoguanosine
Name: CID 3964517
Name: 2-amino-9-[4-hydroxy-5-(hydroxymethyl)oxolan-2-yl]-3,7-dihydropurine-6,8-dione
Formula: C10H13N5O5
Exact mass: 283.091668516
SMILES: C1C(C(OC1N2C3=C(C(=O)NC(=N3)N)NC2=O)CO)O
InChI: InChI=1S/C10H13N5O5/c11-9-13-7-6(8(18)14-9)12-10(19)15(7)5-1-3(17)4(2-16)20-5/h3-5,16-17H,1-2H2,(H,12,19)(H3,11,13,14,18)
Instrument: Exploris 240 Orbitrap Thermo Scientific
Instrument type: LC-ESI-QFT
Ms type: MS2
Ion mode: NEGATIVE
Ionization: ESI
Fragmentation mode: HCD
Collision energy: 30 % (nominal)
Resolution: 17500
Column name: XBridge C18 3.5um, 2.1x50mm, Waters
Retention time: 1.964 min
Base peak: 282.0843
Precursor m/z: 282.0844
Precursor type: [M-H]-
m/z	relative intensity	assigned
66.0098	2	C2N3-
149.0468	11	C6H5N4O-
166.0368	15	C5H4N5O2-
175.026	3	C7H3N4O2-
191.0575	3	C8H7N4O2-
192.0527	440	C7H6N5O2-
234.0633	37	C9H8N5O3-
239.0785	6	C9H11N4O4-
240.0614	2	C9H10N3O5-
282.0844	999	C10H12N5O5-
