Mass spectrum: PG; LC-ESI-QFT; MS2; CE: 45%; R=17500; [M+H]+
Name: PG
Name: Propyl gallate
Name: propyl 3,4,5-trihydroxybenzoate
Formula: C10H12O5
Exact mass: 212.0685
SMILES: CCCOC(=O)C1=CC(=C(C(=C1)O)O)O
InChI: InChI=1S/C10H12O5/c1-2-3-15-10(14)6-4-7(11)9(13)8(12)5-6/h4-5,11-13H,2-3H2,1H3
Instrument: Exploris 240 Orbitrap Thermo Scientific
Instrument type: LC-ESI-QFT
Ms type: MS2
Ion mode: POSITIVE
Ionization: ESI
Fragmentation mode: HCD
Collision energy: 45 % (nominal)
Resolution: 17500
Column name: XBridge C18 3.5um, 2.1x50mm, Waters
Retention time: 4.780 min
Base peak: 171.0285
Precursor m/z: 213.0757
Precursor type: [M+H]+
m/z	relative intensity	assigned
81.0334	63	C5H5O+
107.0125	93	C6H3O2+
109.0283	468	C6H5O2+
125.0232	207	C6H5O3+
127.0388	999	C6H7O3+
153.018	762	C7H5O4+
171.0286	407	C7H7O5+
