Mass spectrum: Tempo; LC-ESI-QFT; MS2; CE: 45%; R=17500; [M+H]+
Name: Tempo
Name: 2,2,6,6-Tetramethyl-1-piperidinyloxy
Formula: C9H18NO
Exact mass: 156.138839198
SMILES: CC1(CCCC(N1[O])(C)C)C
InChI: InChI=1S/C9H18NO/c1-8(2)6-5-7-9(3,4)10(8)11/h5-7H2,1-4H3
Instrument: Exploris 240 Orbitrap Thermo Scientific
Instrument type: LC-ESI-QFT
Ms type: MS2
Ion mode: POSITIVE
Ionization: ESI
Fragmentation mode: HCD
Collision energy: 45 % (nominal)
Resolution: 17500
Column name: XBridge C18 3.5um, 2.1x50mm, Waters
Retention time: 7.067 min
Base peak: 142.1225
Precursor m/z: 157.1461
Precursor type: [M+H]+
m/z	relative intensity	assigned
74.0601	2	C3H8NO+
86.0601	3	C4H8NO+
109.101	19	C8H13+
142.1225	999	C8H16NO+
