Mass spectrum: 2-(3,4-Dihydroxyphenyl)Chroman-3,5,7-Triol; LC-ESI-QFT; MS2; CE: 30%; R=17500; [M+H]+
Name: 2-(3,4-Dihydroxyphenyl)Chroman-3,5,7-Triol
Name: 2-(3,4-dihydroxyphenyl)-3,4-dihydro-2H-1-benzopyran-3,5,7-triol
Name: 2-(3,4-dihydroxyphenyl)-3,4-dihydro-2H-chromene-3,5,7-triol
Formula: C15H14O6
Exact mass: 290.0790382
SMILES: C1C(C(OC2=CC(=CC(=C21)O)O)C3=CC(=C(C=C3)O)O)O
InChI: InChI=1S/C15H14O6/c16-8-4-11(18)9-6-13(20)15(21-14(9)5-8)7-1-2-10(17)12(19)3-7/h1-5,13,15-20H,6H2
Instrument: Exploris 240 Orbitrap Thermo Scientific
Instrument type: LC-ESI-QFT
Ms type: MS2
Ion mode: POSITIVE
Ionization: ESI
Fragmentation mode: HCD
Collision energy: 30 % (nominal)
Resolution: 17500
Column name: XBridge C18 3.5um, 2.1x50mm, Waters
Retention time: 2.894 min
Base peak: 291.0862
Precursor m/z: 291.0863
Precursor type: [M+H]+
m/z	relative intensity	assigned
95.0489	8	C6H7O+
119.0496	4	C8H7O+
123.044	445	C7H7O2+
127.0389	6	C6H7O3+
139.039	999	C7H7O3+
147.0441	131	C9H7O2+
151.0391	22	C8H7O3+
153.0546	7	C8H9O3+
161.0597	9	C10H9O2+
163.0394	23	C9H7O3+
165.0546	220	C9H9O3+
169.0497	25	C8H9O4+
179.0701	14	C10H11O3+
181.049	18	C9H9O4+
207.0652	125	C11H11O4+
249.0765	21	C13H13O5+
273.0759	19	C15H13O5+
291.0865	54	C15H15O6+
