Mass spectrum: Tempo; LC-ESI-QFT; MS2; CE: 120%; R=17500; [M+H]+
Name: Tempo
Name: 2,2,6,6-Tetramethyl-1-piperidinyloxy
Formula: C9H18NO
Exact mass: 156.138839198
SMILES: CC1(CCCC(N1[O])(C)C)C
InChI: InChI=1S/C9H18NO/c1-8(2)6-5-7-9(3,4)10(8)11/h5-7H2,1-4H3
Instrument: Exploris 240 Orbitrap Thermo Scientific
Instrument type: LC-ESI-QFT
Ms type: MS2
Ion mode: POSITIVE
Ionization: ESI
Fragmentation mode: HCD
Collision energy: 120 % (nominal)
Resolution: 17500
Column name: XBridge C18 3.5um, 2.1x50mm, Waters
Retention time: 7.067 min
Base peak: 142.1225
Precursor m/z: 157.1461
Precursor type: [M+H]+
m/z	relative intensity	assigned
41.0385	282	C3H5+
42.0338	58	C2H4N+
43.0178	25	C2H3O+
43.0542	22	C3H7+
46.0287	11	CH4NO+
53.0387	15	C4H5+
55.0542	111	C4H7+
56.0495	106	C3H6N+
56.062	12	C4H8+
57.0573	50	C3H7N+
57.0698	19	C4H9+
58.0651	16	C3H8N+
60.0444	17	C2H6NO+
67.0542	188	C5H7+
68.0494	12	C4H6N+
69.0698	999	C5H9+
70.0651	13	C4H8N+
74.06	105	C3H8NO+
79.0543	21	C6H7+
81.0697	55	C6H9+
82.0651	26	C5H8N+
83.0489	7	C5H7O+
83.0729	13	C5H9N+
84.0808	19	C5H10N+
86.06	143	C4H8NO+
93.0697	7	C7H9+
94.0653	10	C6H8N+
96.0809	35	C6H10N+
109.1011	96	C8H13+
110.0962	45	C7H12N+
142.1225	61	C8H16NO+
