Mass spectrum: PG; LC-ESI-QFT; MS2; CE: 180%; R=17500; [M+H]+
Name: PG
Name: Propyl gallate
Name: propyl 3,4,5-trihydroxybenzoate
Formula: C10H12O5
Exact mass: 212.0685
SMILES: CCCOC(=O)C1=CC(=C(C(=C1)O)O)O
InChI: InChI=1S/C10H12O5/c1-2-3-15-10(14)6-4-7(11)9(13)8(12)5-6/h4-5,11-13H,2-3H2,1H3
Instrument: Exploris 240 Orbitrap Thermo Scientific
Instrument type: LC-ESI-QFT
Ms type: MS2
Ion mode: POSITIVE
Ionization: ESI
Fragmentation mode: HCD
Collision energy: 180 % (nominal)
Resolution: 17500
Column name: XBridge C18 3.5um, 2.1x50mm, Waters
Retention time: 4.780 min
Base peak: 171.0285
Precursor m/z: 213.0757
Precursor type: [M+H]+
m/z	relative intensity	assigned
50.015	265	C4H2+
51.0229	999	C4H3+
52.0309	89	C4H4+
53.0022	128	C3HO+
53.0385	472	C4H5+
55.0178	406	C3H3O+
69.0333	53	C4H5O+
79.0179	91	C5H3O+
81.0336	298	C5H5O+
