Mass spectrum: 2-[3-(benzotriazol-2-yl)-4-hydroxyphenyl]ethyl 2-methylprop-2-enoate; LC-ESI-QFT; MS2; CE: 180%; R=17500; [M+H]+
Name: 2-[3-(benzotriazol-2-yl)-4-hydroxyphenyl]ethyl 2-methylprop-2-enoate
Formula: C18H17N3O3
Exact mass: 323.1269914
SMILES: CC(=C)C(=O)OCCC1=CC(=C(C=C1)O)N2N=C3C=CC=CC3=N2
InChI: InChI=1S/C18H17N3O3/c1-12(2)18(23)24-10-9-13-7-8-17(22)16(11-13)21-19-14-5-3-4-6-15(14)20-21/h3-8,11,22H,1,9-10H2,2H3
Instrument: Exploris 240 Orbitrap Thermo Scientific
Instrument type: LC-ESI-QFT
Ms type: MS2
Ion mode: POSITIVE
Ionization: ESI
Fragmentation mode: HCD
Collision energy: 180 % (nominal)
Resolution: 17500
Column name: XBridge C18 3.5um, 2.1x50mm, Waters
Retention time: 14.027 min
Base peak: 324.1341
Precursor m/z: 324.1343
Precursor type: [M+H]+
m/z	relative intensity	assigned
50.0151	78	C4H2+
51.0229	270	C4H3+
52.0308	28	C4H4+
53.0385	65	C4H5+
62.0149	34	C5H2+
63.023	191	C5H3+
64.0309	14	C5H4+
65.0386	999	C5H5+
77.0386	127	C6H5+
78.0338	35	C5H4N+
79.0417	12	C5H5N+
89.0386	68	C7H5+
91.0541	118	C7H7+
95.0493	42	C6H7O+
105.0447	76	C6H5N2+
115.0542	13	C9H7+
139.054	32	C11H7+
140.0495	23	C10H6N+
152.0621	21	C12H8+
