Mass spectrum: 2,2'-Dihydroxy-4,4'-dimethoxybenzophenone; LC-ESI-QFT; MS2; CE: 75%; R=17500; [M+H]+
Name: 2,2'-Dihydroxy-4,4'-dimethoxybenzophenone
Name: Benzophenone-6
Name: bis(2-hydroxy-4-methoxyphenyl)methanone
Formula: C15H14O5
Exact mass: 274.0841235
SMILES: COC1=CC(=C(C=C1)C(=O)C2=C(C=C(C=C2)OC)O)O
InChI: InChI=1S/C15H14O5/c1-19-9-3-5-11(13(16)7-9)15(18)12-6-4-10(20-2)8-14(12)17/h3-8,16-17H,1-2H3
Instrument: Exploris 240 Orbitrap Thermo Scientific
Instrument type: LC-ESI-QFT
Ms type: MS2
Ion mode: POSITIVE
Ionization: ESI
Fragmentation mode: HCD
Collision energy: 75 % (nominal)
Resolution: 17500
Column name: XBridge C18 3.5um, 2.1x50mm, Waters
Retention time: 10.015 min
Base peak: 275.0912
Precursor m/z: 275.0914
Precursor type: [M+H]+
m/z	relative intensity	assigned
55.0177	4	C3H3O+
65.0385	41	C5H5+
67.0543	27	C5H7+
68.9971	5	C3HO2+
77.0384	4	C6H5+
80.0256	12	C5H4O+
93.0336	6	C6H5O+
95.0491	338	C6H7O+
108.0206	58	C6H4O2+
123.044	59	C7H7O2+
136.0157	5	C7H4O3+
151.039	999	C8H7O3+
