Mass spectrum: Apigenin; LC-ESI-QFT; MS2; CE: 75%; R=17500; [M-H]-
Name: Apigenin
Name: 5,7-dihydroxy-2-(4-hydroxyphenyl)chromen-4-one
Formula: C15H10O5
Exact mass: 270.05282342
SMILES: C1=CC(=CC=C1C2=CC(=O)C3=C(C=C(C=C3O2)O)O)O
InChI: InChI=1S/C15H10O5/c16-9-3-1-8(2-4-9)13-7-12(19)15-11(18)5-10(17)6-14(15)20-13/h1-7,16-18H
Instrument: Exploris 240 Orbitrap Thermo Scientific
Instrument type: LC-ESI-QFT
Ms type: MS2
Ion mode: NEGATIVE
Ionization: ESI
Fragmentation mode: HCD
Collision energy: 75 % (nominal)
Resolution: 17500
Column name: XBridge C18 3.5um, 2.1x50mm, Waters
Retention time: 7.094 min
Base peak: 269.0455
Precursor m/z: 269.0455
Precursor type: [M-H]-
m/z	relative intensity	assigned
63.024	112	C5H3-
65.0033	181	C4HO-
77.0398	7	C6H5-
79.0191	6	C5H3O-
81.0344	11	C5H5O-
83.0139	73	C4H3O2-
93.0346	21	C6H5O-
105.0346	33	C7H5O-
107.0138	185	C6H3O2-
117.0345	999	C8H5O-
121.0296	66	C7H5O2-
149.0244	102	C8H5O3-
151.0036	116	C7H3O4-
159.0453	50	C10H7O2-
169.0657	6	C12H9O-
180.0577	11	C13H8O-
181.0659	15	C13H9O-
183.0448	27	C12H7O2-
201.0554	11	C12H9O3-
225.0562	12	C14H9O3-
227.035	24	C13H7O4-
269.0454	19	C15H9O5-
