Mass spectrum: AO1081; LC-ESI-QFT; MS2; CE: 150%; R=17500; [M-H]-
Name: AO1081
Name: 2,2`-Thiobis(4-methyl-6-tert-butylphenol)
Name: 2-tert-butyl-6-(3-tert-butyl-2-hydroxy-5-methylphenyl)sulfanyl-4-methylphenol
Formula: C22H30O2S
Exact mass: 358.1966512
SMILES: CC1=CC(=C(C(=C1)SC2=CC(=CC(=C2O)C(C)(C)C)C)O)C(C)(C)C
InChI: InChI=1S/C22H30O2S/c1-13-9-15(21(3,4)5)19(23)17(11-13)25-18-12-14(2)10-16(20(18)24)22(6,7)8/h9-12,23-24H,1-8H3
Instrument: Exploris 240 Orbitrap Thermo Scientific
Instrument type: LC-ESI-QFT
Ms type: MS2
Ion mode: NEGATIVE
Ionization: ESI
Fragmentation mode: HCD
Collision energy: 150 % (nominal)
Resolution: 17500
Column name: XBridge C18 3.5um, 2.1x50mm, Waters
Retention time: 17.101 min
Base peak: 357.1892
Precursor m/z: 357.1894
Precursor type: [M-H]-
m/z	relative intensity	assigned
56.9805	495	C2HS-
107.0503	99	C7H7O-
136.0352	90	C8H8S-
137.0067	305	C7H5OS-
138.0148	312	C7H6OS-
147.081	293	C10H11O-
149.0062	147	C8H5OS-
163.0221	999	C9H7OS-
164.03	431	C9H8OS-
177.0381	172	C10H9OS-
178.0455	93	C10H10OS-
