Mass spectrum: AO697; LC-ESI-QFT; MS2; CE: 150%; R=17500; [M+H]+
Name: AO697
Name: Naugard XL-1
Name: 2-[[2-[2-[3-(3,5-ditert-butyl-4-hydroxyphenyl)propanoyloxy]ethylamino]-2-oxoacetyl]amino]ethyl 3-(3,5-ditert-butyl-4-hydroxyphenyl)propanoate
Formula: C40H60N2O8
Exact mass: 696.4350
SMILES: CC(C)(C)C1=CC(=CC(=C1O)C(C)(C)C)CCC(=O)OCCNC(=O)C(=O)NCCOC(=O)CCC2=CC(=C(C(=C2)C(C)(C)C)O)C(C)(C)C
InChI: InChI=1S/C40H60N2O8/c1-37(2,3)27-21-25(22-28(33(27)45)38(4,5)6)13-15-31(43)49-19-17-41-35(47)36(48)42-18-20-50-32(44)16-14-26-23-29(39(7,8)9)34(46)30(24-26)40(10,11)12/h21-24,45-46H,13-20H2,1-12H3,(H,41,47)(H,42,48)
Instrument: Exploris 240 Orbitrap Thermo Scientific
Instrument type: LC-ESI-QFT
Ms type: MS2
Ion mode: POSITIVE
Ionization: ESI
Fragmentation mode: HCD
Collision energy: 150 % (nominal)
Resolution: 17500
Column name: XBridge C18 3.5um, 2.1x50mm, Waters
Retention time: 15.958 min
Base peak: 585.3168
Precursor m/z: 697.4422
Precursor type: [M+H]+
m/z	relative intensity	assigned
77.0385	449	C6H5+
79.0542	206	C6H7+
91.0543	999	C7H7+
95.0492	409	C6H7O+
105.0451	259	C6H5N2+
107.0494	343	C7H7O+
115.0543	209	C9H7+
