Mass spectrum: THBP; LC-ESI-QFT; MS2; CE: 180%; R=17500; [M+H]+
Name: THBP
Name: 2,4,5-Trihydroxybutyrophenone
Name: 1-(2,4,5-trihydroxyphenyl)butan-1-one
Formula: C10H12O4
Exact mass: 196.0736
SMILES: CCCC(=O)C1=CC(=C(C=C1O)O)O
InChI: InChI=1S/C10H12O4/c1-2-3-7(11)6-4-9(13)10(14)5-8(6)12/h4-5,12-14H,2-3H2,1H3
Instrument: Exploris 240 Orbitrap Thermo Scientific
Instrument type: LC-ESI-QFT
Ms type: MS2
Ion mode: POSITIVE
Ionization: ESI
Fragmentation mode: HCD
Collision energy: 180 % (nominal)
Resolution: 17500
Column name: XBridge C18 3.5um, 2.1x50mm, Waters
Retention time: 5.501 min
Base peak: 197.0806
Precursor m/z: 197.0808
Precursor type: [M+H]+
m/z	relative intensity	assigned
51.0229	999	C4H3+
53.0022	358	C3HO+
53.0386	357	C4H5+
55.0179	131	C3H3O+
65.0385	223	C5H5+
66.0465	85	C5H6+
68.9972	150	C3HO2+
77.0385	211	C6H5+
81.0336	220	C5H5O+
89.0387	134	C7H5+
95.0492	307	C6H7O+
