Mass spectrum: Isoliquiritigenin; LC-ESI-QFT; MS2; CE: 180%; R=17500; [M+H]+
Name: Isoliquiritigenin
Name: 1-(2,4-dihydroxyphenyl)-3-(4-hydroxyphenyl)prop-2-en-1-one
Formula: C15H12O4
Exact mass: 256.0735589
SMILES: C1=CC(=CC=C1C=CC(=O)C2=C(C=C(C=C2)O)O)O
InChI: InChI=1S/C15H12O4/c16-11-4-1-10(2-5-11)3-8-14(18)13-7-6-12(17)9-15(13)19/h1-9,16-17,19H
Instrument: Exploris 240 Orbitrap Thermo Scientific
Instrument type: LC-ESI-QFT
Ms type: MS2
Ion mode: POSITIVE
Ionization: ESI
Fragmentation mode: HCD
Collision energy: 180 % (nominal)
Resolution: 17500
Column name: XBridge C18 3.5um, 2.1x50mm, Waters
Retention time: 7.266 min
Base peak: 257.0806
Precursor m/z: 257.0808
Precursor type: [M+H]+
m/z	relative intensity	assigned
51.0229	274	C4H3+
53.0021	110	C3HO+
53.0386	591	C4H5+
55.0178	51	C3H3O+
63.0229	201	C5H3+
65.0386	999	C5H5+
68.9971	854	C3HO2+
75.0229	109	C6H3+
77.0387	137	C6H5+
81.0335	375	C5H5O+
89.0385	76	C7H5+
91.0542	227	C7H7+
95.0491	23	C6H7O+
115.0543	91	C9H7+
139.0539	50	C11H7+
152.0625	57	C12H8+
