Mass spectrum: OG; LC-ESI-QFT; MS2; CE: 120%; R=17500; [M+H]+
Name: OG
Name: Octyl gallate
Name: octyl 3,4,5-trihydroxybenzoate
Formula: C15H22O5
Exact mass: 282.1467
SMILES: CCCCCCCCOC(=O)C1=CC(=C(C(=C1)O)O)O
InChI: InChI=1S/C15H22O5/c1-2-3-4-5-6-7-8-20-15(19)11-9-12(16)14(18)13(17)10-11/h9-10,16-18H,2-8H2,1H3
Instrument: Exploris 240 Orbitrap Thermo Scientific
Instrument type: LC-ESI-QFT
Ms type: MS2
Ion mode: POSITIVE
Ionization: ESI
Fragmentation mode: HCD
Collision energy: 120 % (nominal)
Resolution: 17500
Column name: XBridge C18 3.5um, 2.1x50mm, Waters
Retention time: 11.221 min
Base peak: 283.1537
Precursor m/z: 283.154
Precursor type: [M+H]+
m/z	relative intensity	assigned
51.0229	259	C4H3+
53.0386	447	C4H5+
55.0178	255	C3H3O+
57.0698	82	C4H9+
69.0334	133	C4H5O+
79.0178	345	C5H3O+
81.0334	999	C5H5O+
97.0284	86	C5H5O2+
107.0126	312	C6H3O2+
109.0283	62	C6H5O2+
