Mass spectrum: UV9; LC-ESI-QFT; MS2; CE: 120%; R=17500; [M+H]+
Name: UV9
Name: 2-(benzotriazol-2-yl)-4-methyl-6-prop-2-enylphenol
Formula: C16H15N3O
Exact mass: 265.1215121
SMILES: CC1=CC(=C(C(=C1)N2N=C3C=CC=CC3=N2)O)CC=C
InChI: InChI=1S/C16H15N3O/c1-3-6-12-9-11(2)10-15(16(12)20)19-17-13-7-4-5-8-14(13)18-19/h3-5,7-10,20H,1,6H2,2H3
Instrument: Exploris 240 Orbitrap Thermo Scientific
Instrument type: LC-ESI-QFT
Ms type: MS2
Ion mode: POSITIVE
Ionization: ESI
Fragmentation mode: HCD
Collision energy: 120 % (nominal)
Resolution: 17500
Column name: XBridge C18 3.5um, 2.1x50mm, Waters
Retention time: 16.910 min
Base peak: 266.1289
Precursor m/z: 266.1288
Precursor type: [M+H]+
m/z	relative intensity	assigned
51.0231	34	C4H3+
53.0385	98	C4H5+
65.0386	773	C5H5+
66.0464	58	C5H6+
77.0386	164	C6H5+
78.0463	107	C6H6+
79.042	13	C5H5N+
79.0542	127	C6H7+
80.0496	41	C5H6N+
90.0467	23	C7H6+
91.0543	999	C7H7+
92.0495	88	C6H6N+
93.0573	32	C6H7N+
93.07	31	C7H9+
95.0491	112	C6H7O+
102.0467	26	C8H6+
103.0543	223	C8H7+
104.0621	166	C8H8+
105.0448	206	C6H5N2+
105.0699	30	C8H9+
115.0542	246	C9H7+
117.0578	63	C8H7N+
117.07	129	C9H9+
118.0656	21	C8H8N+
119.086	23	C9H11+
120.0554	29	C6H6N3+
128.0618	60	C10H8+
131.0494	88	C9H7O+
152.0625	21	C12H8+
154.0656	23	C11H8N+
160.0756	38	C10H10NO+
167.0735	60	C12H9N+
