Mass spectrum: 2,4-Dihydroxybenzophenone; LC-ESI-QFT; MS2; CE: 90%; R=17500; [M+H]+
Name: 2,4-Dihydroxybenzophenone
Name: (2,4-dihydroxyphenyl)-phenylmethanone
Formula: C13H10O3
Exact mass: 214.0629942
SMILES: C1=CC=C(C=C1)C(=O)C2=C(C=C(C=C2)O)O
InChI: InChI=1S/C13H10O3/c14-10-6-7-11(12(15)8-10)13(16)9-4-2-1-3-5-9/h1-8,14-15H
Instrument: Exploris 240 Orbitrap Thermo Scientific
Instrument type: LC-ESI-QFT
Ms type: MS2
Ion mode: POSITIVE
Ionization: ESI
Fragmentation mode: HCD
Collision energy: 90 % (nominal)
Resolution: 17500
Column name: XBridge C18 3.5um, 2.1x50mm, Waters
Retention time: 8.138 min
Base peak: 215.07
Precursor m/z: 215.0703
Precursor type: [M+H]+
m/z	relative intensity	assigned
51.023	6	C4H3+
53.0386	134	C4H5+
68.9971	65	C3HO2+
77.0385	250	C6H5+
81.0335	659	C5H5O+
94.0413	7	C6H6O+
95.0491	70	C6H7O+
96.0206	12	C5H4O2+
105.0335	224	C7H5O+
109.0283	78	C6H5O2+
115.0542	6	C9H7+
127.0392	20	C6H7O3+
137.0233	999	C7H5O3+
