Mass spectrum: 2`-deoxy-8-oxoguanosine; LC-ESI-QFT; MS2; CE: 75%; R=17500; [M-H]-
Name: 2`-deoxy-8-oxoguanosine
Name: CID 3964517
Name: 2-amino-9-[4-hydroxy-5-(hydroxymethyl)oxolan-2-yl]-3,7-dihydropurine-6,8-dione
Formula: C10H13N5O5
Exact mass: 283.091668516
SMILES: C1C(C(OC1N2C3=C(C(=O)NC(=N3)N)NC2=O)CO)O
InChI: InChI=1S/C10H13N5O5/c11-9-13-7-6(8(18)14-9)12-10(19)15(7)5-1-3(17)4(2-16)20-5/h3-5,16-17H,1-2H2,(H,12,19)(H3,11,13,14,18)
Instrument: Exploris 240 Orbitrap Thermo Scientific
Instrument type: LC-ESI-QFT
Ms type: MS2
Ion mode: NEGATIVE
Ionization: ESI
Fragmentation mode: HCD
Collision energy: 75 % (nominal)
Resolution: 17500
Column name: XBridge C18 3.5um, 2.1x50mm, Waters
Retention time: 1.964 min
Base peak: 282.0843
Precursor m/z: 282.0844
Precursor type: [M-H]-
m/z	relative intensity	assigned
66.0098	999	C2N3-
67.0302	311	C3H3N2-
79.0176	35	C3HN3-
79.0303	86	C4H3N2-
80.0255	30	C3H2N3-
81.0096	55	C3HN2O-
93.0209	43	C3HN4-
94.03	37	C5H4NO-
94.0411	53	C4H4N3-
95.025	408	C4H3N2O-
96.0202	80	C3H2N3O-
97.0044	45	C3HN2O2-
106.0051	47	C4N3O-
106.041	50	C5H4N3-
107.0253	124	C5H3N2O-
109.0409	50	C5H5N2O-
120.0202	41	C5H2N3O-
121.0156	69	C4HN4O-
121.0403	80	C6H5N2O-
121.0522	69	C5H5N4-
122.0236	223	C4H2N4O-
122.0361	499	C5H4N3O-
123.0075	416	C4HN3O2-
123.02	63	C5H3N2O2-
123.0314	64	C4H3N4O-
124.0154	105	C4H2N3O2-
124.0511	31	C5H6N3O-
147.0318	108	C6H3N4O-
148.0026	87	C5N4O2-
149.0106	44	C5HN4O2-
149.0231	36	C6H3N3O2-
149.047	281	C6H5N4O-
150.0309	676	C6H4N3O2-
151.0262	55	C5H3N4O2-
164.0468	61	C7H6N3O2-
165.0292	190	C5H3N5O2-
166.0375	40	C5H4N5O2-
175.0265	113	C7H3N4O2-
192.0529	250	C7H6N5O2-
