Mass spectrum: Aureusidin; LC-ESI-QFT; MS2; CE: 90%; R=17500; [M-H]-
Name: Aureusidin
Name: 2-[(3,4-Dihydroxyphenyl)methylidene]-4,6-dihydroxy-3-benzofuranone
Name: 2-[(3,4-dihydroxyphenyl)methylidene]-4,6-dihydroxy-1-benzofuran-3-one
Formula: C15H10O6
Exact mass: 286.04773804
SMILES: C1=CC(=C(C=C1C=C2C(=O)C3=C(C=C(C=C3O2)O)O)O)O
InChI: InChI=1S/C15H10O6/c16-8-5-11(19)14-12(6-8)21-13(15(14)20)4-7-1-2-9(17)10(18)3-7/h1-6,16-19H
Instrument: Exploris 240 Orbitrap Thermo Scientific
Instrument type: LC-ESI-QFT
Ms type: MS2
Ion mode: NEGATIVE
Ionization: ESI
Fragmentation mode: HCD
Collision energy: 90 % (nominal)
Resolution: 17500
Column name: XBridge C18 3.5um, 2.1x50mm, Waters
Retention time: 5.259 min
Base peak: 285.0403
Precursor m/z: 285.0405
Precursor type: [M-H]-
m/z	relative intensity	assigned
63.024	130	C5H3-
65.0033	297	C4HO-
77.0396	38	C6H5-
79.0191	16	C5H3O-
83.0138	90	C4H3O2-
89.0396	21	C7H5-
93.0346	17	C6H5O-
95.014	15	C5H3O2-
104.0269	20	C7H4O-
105.0346	59	C7H5O-
107.0139	95	C6H3O2-
109.0297	19	C6H5O2-
115.0189	28	C8H3O-
115.0554	20	C9H7-
117.0344	13	C8H5O-
119.05	20	C8H7O-
121.0296	48	C7H5O2-
132.0215	171	C8H4O2-
133.0295	999	C8H5O2-
135.045	41	C8H7O2-
143.0499	24	C10H7O-
145.0296	17	C9H5O2-
146.0371	18	C9H6O2-
147.0457	20	C9H7O2-
149.025	16	C8H5O3-
151.0036	30	C7H3O4-
155.0497	8	C11H7O-
156.0218	25	C10H4O2-
157.0295	16	C10H5O2-
158.0371	9	C10H6O2-
159.0452	21	C10H7O2-
167.0505	16	C12H7O-
170.0375	16	C11H6O2-
171.045	19	C11H7O2-
174.0319	13	C10H6O3-
175.0403	8	C10H7O3-
199.0399	18	C12H7O3-
211.0399	23	C13H7O3-
227.0355	22	C13H7O4-
