Mass spectrum: UV9; LC-ESI-QFT; MS2; CE: 180%; R=17500; [M+H]+
Name: UV9
Name: 2-(benzotriazol-2-yl)-4-methyl-6-prop-2-enylphenol
Formula: C16H15N3O
Exact mass: 265.1215121
SMILES: CC1=CC(=C(C(=C1)N2N=C3C=CC=CC3=N2)O)CC=C
InChI: InChI=1S/C16H15N3O/c1-3-6-12-9-11(2)10-15(16(12)20)19-17-13-7-4-5-8-14(13)18-19/h3-5,7-10,20H,1,6H2,2H3
Instrument: Exploris 240 Orbitrap Thermo Scientific
Instrument type: LC-ESI-QFT
Ms type: MS2
Ion mode: POSITIVE
Ionization: ESI
Fragmentation mode: HCD
Collision energy: 180 % (nominal)
Resolution: 17500
Column name: XBridge C18 3.5um, 2.1x50mm, Waters
Retention time: 16.910 min
Base peak: 266.1289
Precursor m/z: 266.1288
Precursor type: [M+H]+
m/z	relative intensity	assigned
50.0151	98	C4H2+
51.0229	371	C4H3+
52.0306	87	C4H4+
53.0386	207	C4H5+
63.0229	118	C5H3+
65.0386	999	C5H5+
66.0464	49	C5H6+
75.0232	26	C6H3+
77.0386	254	C6H5+
78.0339	47	C5H4N+
78.0465	191	C6H6+
79.0541	23	C6H7+
80.0495	43	C5H6N+
89.0385	133	C7H5+
90.0468	39	C7H6+
91.0543	374	C7H7+
95.0491	178	C6H7O+
102.0463	73	C8H6+
103.0542	174	C8H7+
104.0618	17	C8H8+
105.0447	271	C6H5N2+
115.0541	172	C9H7+
117.0574	37	C8H7N+
128.0621	19	C10H8+
131.0494	25	C9H7O+
139.0546	43	C11H7+
152.062	20	C12H8+
