Mass spectrum: AO2246; LC-ESI-QFT; MS2; CE: 45%; R=17500; [M-H]-
Name: AO2246
Name: 2,2`-Methylenebis(4-methyl-6-tert-butylphenol)
Name: 2-tert-butyl-6-[(3-tert-butyl-2-hydroxy-5-methylphenyl)methyl]-4-methylphenol
Formula: C23H32O2
Exact mass: 340.2402
SMILES: CC1=CC(=C(C(=C1)C(C)(C)C)O)CC2=C(C(=CC(=C2)C)C(C)(C)C)O
InChI: InChI=1S/C23H32O2/c1-14-9-16(20(24)18(11-14)22(3,4)5)13-17-10-15(2)12-19(21(17)25)23(6,7)8/h9-12,24-25H,13H2,1-8H3
Instrument: Exploris 240 Orbitrap Thermo Scientific
Instrument type: LC-ESI-QFT
Ms type: MS2
Ion mode: NEGATIVE
Ionization: ESI
Fragmentation mode: HCD
Collision energy: 45 % (nominal)
Resolution: 17500
Column name: XBridge C18 3.5um, 2.1x50mm, Waters
Retention time: 16.263 min
Base peak: 339.2326
Precursor m/z: 339.233
Precursor type: [M-H]-
m/z	relative intensity	assigned
163.1128	999	C11H15O-
339.234	147	C23H31O2-
