Mass spectrum: TCEP; LC-ESI-QFT; MS2; CE: 150%; R=17500; [M+H]+
Name: TCEP
Name: tris(2-chloroethyl) phosphate
Formula: C6H12Cl3O4P
Exact mass: 283.9539
SMILES: C(CCl)OP(=O)(OCCCl)OCCCl
InChI: InChI=1S/C6H12Cl3O4P/c7-1-4-11-14(10,12-5-2-8)13-6-3-9/h1-6H2
Instrument: Exploris 240 Orbitrap Thermo Scientific
Instrument type: LC-ESI-QFT
Ms type: MS2
Ion mode: POSITIVE
Ionization: ESI
Fragmentation mode: HCD
Collision energy: 150 % (nominal)
Resolution: 17500
Column name: XBridge C18 3.5um, 2.1x50mm, Waters
Retention time: 5.835 min
Base peak: 284.9609
Precursor m/z: 284.9612
Precursor type: [M+H]+
m/z	relative intensity	assigned
62.9996	591	C2H4Cl+
98.9841	999	H4O4P+
