Mass spectrum: 77PPD; LC-ESI-QFT; MS2; CE: 30%; R=17500; [M+H]+
Name: 77PPD
Name: 1-N,4-N-bis(5-methylhexan-2-yl)benzene-1,4-diamine
Formula: C20H36N2
Exact mass: 304.2878492
SMILES: CC(C)CCC(C)NC1=CC=C(C=C1)NC(C)CCC(C)C
InChI: InChI=1S/C20H36N2/c1-15(2)7-9-17(5)21-19-11-13-20(14-12-19)22-18(6)10-8-16(3)4/h11-18,21-22H,7-10H2,1-6H3
Instrument: Exploris 240 Orbitrap Thermo Scientific
Instrument type: LC-ESI-QFT
Ms type: MS2
Ion mode: POSITIVE
Ionization: ESI
Fragmentation mode: HCD
Collision energy: 30 % (nominal)
Resolution: 17500
Column name: XBridge C18 3.5um, 2.1x50mm, Waters
Retention time: 12.642 min
Base peak: 132.9582
Precursor m/z: 305.2951
Precursor type: [M+H]+
m/z	relative intensity	assigned
109.0758	19	C6H9N2+
135.0914	43	C8H11N2+
205.1698	12	C13H21N2+
206.1776	999	C13H22N2+
207.1855	226	C13H23N2+
305.2949	172	C20H37N2+
