Mass spectrum: AO ZKF; LC-ESI-QFT; MS2; CE: 150%; R=17500; [M-H]-
Name: AO ZKF
Name: 2,2`-Methylenebis(6-cyclohexyl-p-cresol)
Name: 2-cyclohexyl-6-[(3-cyclohexyl-2-hydroxy-5-methylphenyl)methyl]-4-methylphenol
Formula: C27H36O2
Exact mass: 392.271530392
SMILES: CC1=CC(=C(C(=C1)C2CCCCC2)O)CC3=C(C(=CC(=C3)C)C4CCCCC4)O
InChI: InChI=1S/C27H36O2/c1-18-13-22(26(28)24(15-18)20-9-5-3-6-10-20)17-23-14-19(2)16-25(27(23)29)21-11-7-4-8-12-21/h13-16,20-21,28-29H,3-12,17H2,1-2H3
Instrument: Exploris 240 Orbitrap Thermo Scientific
Instrument type: LC-ESI-QFT
Ms type: MS2
Ion mode: NEGATIVE
Ionization: ESI
Fragmentation mode: HCD
Collision energy: 150 % (nominal)
Resolution: 17500
Column name: XBridge C18 3.5um, 2.1x50mm, Waters
Retention time: 18.086 min
Base peak: 391.2642
Precursor m/z: 391.2643
Precursor type: [M-H]-
m/z	relative intensity	assigned
107.0504	205	C7H7O-
121.0658	106	C8H9O-
131.0501	122	C9H7O-
133.0659	999	C9H9O-
159.0816	516	C11H11O-
