Mass spectrum: Apigenin; LC-ESI-QFT; MS2; CE: 150%; R=17500; [M-H]-
Name: Apigenin
Name: 5,7-dihydroxy-2-(4-hydroxyphenyl)chromen-4-one
Formula: C15H10O5
Exact mass: 270.05282342
SMILES: C1=CC(=CC=C1C2=CC(=O)C3=C(C=C(C=C3O2)O)O)O
InChI: InChI=1S/C15H10O5/c16-9-3-1-8(2-4-9)13-7-12(19)15-11(18)5-10(17)6-14(15)20-13/h1-7,16-18H
Instrument: Exploris 240 Orbitrap Thermo Scientific
Instrument type: LC-ESI-QFT
Ms type: MS2
Ion mode: NEGATIVE
Ionization: ESI
Fragmentation mode: HCD
Collision energy: 150 % (nominal)
Resolution: 17500
Column name: XBridge C18 3.5um, 2.1x50mm, Waters
Retention time: 7.094 min
Base peak: 269.0455
Precursor m/z: 269.0455
Precursor type: [M-H]-
m/z	relative intensity	assigned
63.024	124	C5H3-
65.0033	583	C4HO-
88.0321	33	C7H4-
89.0395	233	C7H5-
91.0186	20	C6H3O-
93.0347	33	C6H5O-
116.0265	87	C8H4O-
117.0345	999	C8H5O-
