Mass spectrum: EQ; LC-ESI-QFT; MS2; CE: 150%; R=17500; [M+H]+
Name: EQ
Name: Ethoxyquin
Name: 6-ethoxy-2,2,4-trimethyl-1H-quinoline
Formula: C14H19NO
Exact mass: 217.1467
SMILES: CCOC1=CC2=C(C=C1)NC(C=C2C)(C)C
InChI: InChI=1S/C14H19NO/c1-5-16-11-6-7-13-12(8-11)10(2)9-14(3,4)15-13/h6-9,15H,5H2,1-4H3
Instrument: Exploris 240 Orbitrap Thermo Scientific
Instrument type: LC-ESI-QFT
Ms type: MS2
Ion mode: POSITIVE
Ionization: ESI
Fragmentation mode: HCD
Collision energy: 150 % (nominal)
Resolution: 17500
Column name: XBridge C18 3.5um, 2.1x50mm, Waters
Retention time: 5.669 min
Base peak: 218.1536
Precursor m/z: 218.1539
Precursor type: [M+H]+
m/z	relative intensity	assigned
51.0231	111	C4H3+
53.0386	246	C4H5+
55.0179	87	C3H3O+
65.0386	500	C5H5+
67.0543	116	C5H7+
77.0387	302	C6H5+
78.0463	228	C6H6+
79.0542	561	C6H7+
80.0496	171	C5H6N+
89.0386	374	C7H5+
91.0543	763	C7H7+
93.0574	153	C6H7N+
94.0651	93	C6H8N+
95.049	635	C6H7O+
103.0542	280	C8H7+
104.0494	409	C7H6N+
105.0573	252	C7H7N+
105.0702	143	C8H9+
106.0655	134	C7H8N+
107.0494	240	C7H7O+
115.0542	509	C9H7+
116.0496	106	C8H6N+
117.0574	956	C8H7N+
118.0652	658	C8H8N+
128.0622	222	C10H8+
129.0701	125	C10H9+
130.0653	919	C9H8N+
131.0729	999	C9H9N+
132.0807	255	C9H10N+
133.0525	371	C8H7NO+
134.0605	94	C8H8NO+
143.0727	189	C10H9N+
144.081	131	C10H10N+
145.0889	209	C10H11N+
146.0603	593	C9H8NO+
146.0967	246	C10H12N+
159.068	312	C10H9NO+
160.0758	468	C10H10NO+
174.0916	244	C11H12NO+
