Mass spectrum: Drometrizole; LC-ESI-QFT; MS2; CE: 180%; R=17500; [M+H]+
Name: Drometrizole
Name: 2-(benzotriazol-2-yl)-4-methylphenol
Formula: C13H11N3O
Exact mass: 225.090212
SMILES: CC1=CC(=C(C=C1)O)N2N=C3C=CC=CC3=N2
InChI: InChI=1S/C13H11N3O/c1-9-6-7-13(17)12(8-9)16-14-10-4-2-3-5-11(10)15-16/h2-8,17H,1H3
Instrument: Exploris 240 Orbitrap Thermo Scientific
Instrument type: LC-ESI-QFT
Ms type: MS2
Ion mode: POSITIVE
Ionization: ESI
Fragmentation mode: HCD
Collision energy: 180 % (nominal)
Resolution: 17500
Column name: XBridge C18 3.5um, 2.1x50mm, Waters
Retention time: 13.562 min
Base peak: 226.0974
Precursor m/z: 226.0975
Precursor type: [M+H]+
m/z	relative intensity	assigned
50.0151	243	C4H2+
51.0229	999	C4H3+
52.0182	31	C3H2N+
52.0308	283	C4H4+
53.0386	336	C4H5+
55.018	26	C3H3O+
63.0229	77	C5H3+
65.0386	405	C5H5+
77.0386	511	C6H5+
78.0337	118	C5H4N+
78.0465	60	C6H6+
79.0417	91	C5H5N+
79.0543	28	C6H7+
80.0493	39	C5H6N+
94.0415	36	C6H6O+
95.0492	191	C6H7O+
102.0465	50	C8H6+
105.0447	365	C6H5N2+
115.0545	25	C9H7+
126.0468	39	C10H6+
127.0546	43	C10H7+
128.0494	18	C9H6N+
128.0621	23	C10H8+
154.0656	25	C11H8N+
155.061	42	C10H7N2+
