Mass spectrum: Desoxyguanosine; LC-ESI-QFT; MS2; CE: 120%; R=17500; [M+H]+
Name: Desoxyguanosine
Name: 2-amino-9-[4-hydroxy-5-(hydroxymethyl)oxolan-2-yl]-1H-purin-6-one
Formula: C10H13N5O4
Exact mass: 267.0967539
SMILES: C1C(C(OC1N2C=NC3=C2N=C(NC3=O)N)CO)O
InChI: InChI=1S/C10H13N5O4/c11-10-13-8-7(9(18)14-10)12-3-15(8)6-1-4(17)5(2-16)19-6/h3-6,16-17H,1-2H2,(H3,11,13,14,18)
Instrument: Exploris 240 Orbitrap Thermo Scientific
Instrument type: LC-ESI-QFT
Ms type: MS2
Ion mode: POSITIVE
Ionization: ESI
Fragmentation mode: HCD
Collision energy: 120 % (nominal)
Resolution: 17500
Column name: XBridge C18 3.5um, 2.1x50mm, Waters
Retention time: 6.504 min
Base peak: 186.0913
Precursor m/z: 186.0913
Precursor type: [M+H]+
m/z	relative intensity	assigned
53.0386	27	C4H5+
65.0386	148	C5H5+
66.0466	31	C5H6+
80.0495	379	C5H6N+
81.0336	125	C5H5O+
81.0574	97	C5H7N+
82.0412	20	C5H6O+
92.0494	32	C6H6N+
93.0573	173	C6H7N+
108.0444	126	C6H6NO+
109.0523	999	C6H7NO+
115.0542	20	C9H7+
167.0733	11	C12H9N+
