Mass spectrum: 2NL; LC-ESI-QFT; MS2; CE: 75%; R=17500; [M+H]+
Name: 2NL
Name: 2-Naphthol
Name: naphthalen-2-ol
Formula: C10H8O
Exact mass: 144.0575
SMILES: C1=CC=C2C=C(C=CC2=C1)O
InChI: InChI=1S/C10H8O/c11-10-6-5-8-3-1-2-4-9(8)7-10/h1-7,11H
Instrument: Exploris 240 Orbitrap Thermo Scientific
Instrument type: LC-ESI-QFT
Ms type: MS2
Ion mode: POSITIVE
Ionization: ESI
Fragmentation mode: HCD
Collision energy: 75 % (nominal)
Resolution: 17500
Column name: XBridge C18 3.5um, 2.1x50mm, Waters
Retention time: 6.538 min
Base peak: 132.9581
Precursor m/z: 145.0648
Precursor type: [M+H]+
m/z	relative intensity	assigned
91.0543	156	C7H7+
115.0541	382	C9H7+
117.0701	999	C9H9+
145.0649	892	C10H9O+
