Mass spectrum: DPPD; LC-ESI-QFT; MS2; CE: 120%; R=17500; [M+H]+
Name: DPPD
Name: 1-N,4-N-diphenylbenzene-1,4-diamine
Formula: C18H16N2
Exact mass: 260.1313485
SMILES: C1=CC=C(C=C1)NC2=CC=C(C=C2)NC3=CC=CC=C3
InChI: InChI=1S/C18H16N2/c1-3-7-15(8-4-1)19-17-11-13-18(14-12-17)20-16-9-5-2-6-10-16/h1-14,19-20H
Instrument: Exploris 240 Orbitrap Thermo Scientific
Instrument type: LC-ESI-QFT
Ms type: MS2
Ion mode: POSITIVE
Ionization: ESI
Fragmentation mode: HCD
Collision energy: 120 % (nominal)
Resolution: 17500
Column name: XBridge C18 3.5um, 2.1x50mm, Waters
Retention time: 11.735 min
Base peak: 261.1383
Precursor m/z: 261.1386
Precursor type: [M+H]+
m/z	relative intensity	assigned
53.0385	21	C4H5+
65.0387	15	C5H5+
66.0464	64	C5H6+
77.0383	35	C6H5+
79.0413	13	C5H5N+
80.0495	350	C5H6N+
81.0574	91	C5H7N+
91.0419	27	C6H5N+
93.0574	58	C6H7N+
105.0446	17	C6H5N2+
106.0527	15	C6H6N2+
107.0603	999	C6H7N2+
115.0544	18	C9H7+
117.0572	12	C8H7N+
118.0526	98	C7H6N2+
128.0615	35	C10H8+
129.0696	41	C10H9+
130.0646	38	C9H8N+
139.0544	25	C11H7+
140.0495	15	C10H6N+
143.0727	24	C10H9N+
144.0804	10	C10H10N+
154.0656	12	C11H8N+
156.0805	68	C11H10N+
166.0653	132	C12H8N+
167.0729	135	C12H9N+
182.0841	64	C12H10N2+
183.0918	179	C12H11N2+
184.0995	167	C12H12N2+
