Mass spectrum: Kaempferol; LC-ESI-QFT; MS2; CE: 30%; R=17500; [M-H]-
Name: Kaempferol
Name: 3,5,7-trihydroxy-2-(4-hydroxyphenyl)chromen-4-one
Formula: C15H10O6
Exact mass: 286.04773804
SMILES: C1=CC(=CC=C1C2=C(C(=O)C3=C(C=C(C=C3O2)O)O)O)O
InChI: InChI=1S/C15H10O6/c16-8-3-1-7(2-4-8)15-14(20)13(19)12-10(18)5-9(17)6-11(12)21-15/h1-6,16-18,20H
Instrument: Exploris 240 Orbitrap Thermo Scientific
Instrument type: LC-ESI-QFT
Ms type: MS2
Ion mode: NEGATIVE
Ionization: ESI
Fragmentation mode: HCD
Collision energy: 30 % (nominal)
Resolution: 17500
Column name: XBridge C18 3.5um, 2.1x50mm, Waters
Retention time: 6.967 min
Base peak: 285.0403
Precursor m/z: 285.0405
Precursor type: [M-H]-
m/z	relative intensity	assigned
151.0035	8	C7H3O4-
257.0459	5	C14H9O5-
285.0404	999	C15H9O6-
