Mass spectrum: Curcumin; LC-ESI-QFT; MS2; CE: 90%; R=17500; [M+H]+
Name: Curcumin
Name: 1,7-Bis(4-hydroxy-3-methoxyphenyl)-1,6-heptadiene-3,5-dione
Name: 1,7-bis(4-hydroxy-3-methoxyphenyl)hepta-1,6-diene-3,5-dione
Formula: C21H20O6
Exact mass: 368.1259884
SMILES: COC1=C(C=CC(=C1)C=CC(=O)CC(=O)C=CC2=CC(=C(C=C2)O)OC)O
InChI: InChI=1S/C21H20O6/c1-26-20-11-14(5-9-18(20)24)3-7-16(22)13-17(23)8-4-15-6-10-19(25)21(12-15)27-2/h3-12,24-25H,13H2,1-2H3
Instrument: Exploris 240 Orbitrap Thermo Scientific
Instrument type: LC-ESI-QFT
Ms type: MS2
Ion mode: POSITIVE
Ionization: ESI
Fragmentation mode: HCD
Collision energy: 90 % (nominal)
Resolution: 17500
Column name: XBridge C18 3.5um, 2.1x50mm, Waters
Retention time: 9.566 min
Base peak: 369.1332
Precursor m/z: 369.1333
Precursor type: [M+H]+
m/z	relative intensity	assigned
55.0178	10	C3H3O+
63.0232	26	C5H3+
68.9971	50	C3HO2+
77.0387	23	C6H5+
78.0464	86	C6H6+
79.0543	6	C6H7+
89.0386	976	C7H5+
91.0544	75	C7H7+
94.0415	21	C6H6O+
103.0543	51	C8H7+
105.0332	13	C7H5O+
106.0413	64	C7H6O+
107.0491	8	C7H7O+
115.0542	18	C9H7+
117.0335	999	C8H5O+
118.0412	26	C8H6O+
119.0489	10	C8H7O+
122.036	30	C7H6O2+
128.0624	7	C10H8+
131.0492	9	C9H7O+
134.0362	171	C8H6O2+
135.044	13	C8H7O2+
136.0519	77	C8H8O2+
137.0598	32	C8H9O2+
145.0284	243	C9H5O2+
146.0363	83	C9H6O2+
149.0598	193	C9H9O2+
153.0698	18	C12H9+
162.0312	11	C9H6O3+
165.0696	80	C13H9+
177.0548	19	C10H9O3+
181.0647	27	C13H9O+
182.0729	21	C13H10O+
193.0648	18	C14H9O+
210.0678	24	C14H10O2+
