Mass spectrum: UV-PS; LC-ESI-QFT; MS2; CE: 150%; R=17500; [M+H]+
Name: UV-PS
Name: 2-(benzotriazol-2-yl)-4-tert-butylphenol
Formula: C16H17N3O
Exact mass: 267.1371622
SMILES: CC(C)(C)C1=CC(=C(C=C1)O)N2N=C3C=CC=CC3=N2
InChI: InChI=1S/C16H17N3O/c1-16(2,3)11-8-9-15(20)14(10-11)19-17-12-6-4-5-7-13(12)18-19/h4-10,20H,1-3H3
Instrument: Exploris 240 Orbitrap Thermo Scientific
Instrument type: LC-ESI-QFT
Ms type: MS2
Ion mode: POSITIVE
Ionization: ESI
Fragmentation mode: HCD
Collision energy: 150 % (nominal)
Resolution: 17500
Column name: XBridge C18 3.5um, 2.1x50mm, Waters
Retention time: 15.802 min
Base peak: 268.1445
Precursor m/z: 268.1444
Precursor type: [M+H]+
m/z	relative intensity	assigned
51.0229	85	C4H3+
52.0308	60	C4H4+
53.0386	94	C4H5+
57.07	38	C4H9+
65.0386	999	C5H5+
66.034	18	C4H4N+
77.0386	128	C6H5+
78.034	27	C5H4N+
78.0465	20	C6H6+
79.0417	58	C5H5N+
79.0541	120	C6H7+
80.0496	145	C5H6N+
91.0543	196	C7H7+
92.0496	134	C6H6N+
94.0414	37	C6H6O+
95.0492	67	C6H7O+
103.0543	35	C8H7+
105.0449	118	C6H5N2+
105.0701	55	C8H9+
107.0495	16	C7H7O+
115.0543	47	C9H7+
120.0558	44	C6H6N3+
128.0621	30	C10H8+
133.0652	29	C9H9O+
139.0541	36	C11H7+
140.05	20	C10H6N+
154.0651	37	C11H8N+
166.0651	17	C12H8N+
180.081	24	C13H10N+
