Mass spectrum: Apigenin; LC-ESI-QFT; MS2; CE: 60%; R=17500; [M-H]-
Name: Apigenin
Name: 5,7-dihydroxy-2-(4-hydroxyphenyl)chromen-4-one
Formula: C15H10O5
Exact mass: 270.05282342
SMILES: C1=CC(=CC=C1C2=CC(=O)C3=C(C=C(C=C3O2)O)O)O
InChI: InChI=1S/C15H10O5/c16-9-3-1-8(2-4-9)13-7-12(19)15-11(18)5-10(17)6-14(15)20-13/h1-7,16-18H
Instrument: Exploris 240 Orbitrap Thermo Scientific
Instrument type: LC-ESI-QFT
Ms type: MS2
Ion mode: NEGATIVE
Ionization: ESI
Fragmentation mode: HCD
Collision energy: 60 % (nominal)
Resolution: 17500
Column name: XBridge C18 3.5um, 2.1x50mm, Waters
Retention time: 7.094 min
Base peak: 269.0455
Precursor m/z: 269.0455
Precursor type: [M-H]-
m/z	relative intensity	assigned
63.0239	65	C5H3-
65.0033	131	C4HO-
83.0138	71	C4H3O2-
93.0344	18	C6H5O-
105.0344	38	C7H5O-
107.0138	272	C6H3O2-
117.0346	999	C8H5O-
121.0294	56	C7H5O2-
149.0244	371	C8H5O3-
151.0037	527	C7H3O4-
159.045	111	C10H7O2-
169.0657	15	C12H9O-
180.0579	22	C13H8O-
181.0658	62	C13H9O-
183.0457	58	C12H7O2-
197.0604	32	C13H9O2-
201.0557	86	C12H9O3-
213.0557	8	C13H9O3-
224.0486	20	C14H8O3-
225.0552	122	C14H9O3-
227.0356	82	C13H7O4-
269.0456	580	C15H9O5-
