Mass spectrum: Pinoresinol; LC-ESI-QFT; MS2; CE: 45%; R=17500; [M-H]-
Name: Pinoresinol
Name: (+-)-Pinoresinol
Name: 4-[6-(4-hydroxy-3-methoxyphenyl)-1,3,3a,4,6,6a-hexahydrofuro[3,4-c]furan-3-yl]-2-methoxyphenol
Formula: C20H22O6
Exact mass: 358.141638424
SMILES: COC1=C(C=CC(=C1)C2C3COC(C3CO2)C4=CC(=C(C=C4)O)OC)O
InChI: InChI=1S/C20H22O6/c1-23-17-7-11(3-5-15(17)21)19-13-9-26-20(14(13)10-25-19)12-4-6-16(22)18(8-12)24-2/h3-8,13-14,19-22H,9-10H2,1-2H3
Instrument: Exploris 240 Orbitrap Thermo Scientific
Instrument type: LC-ESI-QFT
Ms type: MS2
Ion mode: NEGATIVE
Ionization: ESI
Fragmentation mode: HCD
Collision energy: 45 % (nominal)
Resolution: 17500
Column name: XBridge C18 3.5um, 2.1x50mm, Waters
Retention time: 5.597 min
Base peak: 146.9386
Precursor m/z: 357.1344
Precursor type: [M-H]-
m/z	relative intensity	assigned
136.0165	617	C7H4O3-
151.0399	999	C8H7O3-
