Mass spectrum: Silibinin; LC-ESI-QFT; MS2; CE: 15%; R=17500; [M+H]+
Name: Silibinin
Name: Silymarin
Name: 3,5,7-trihydroxy-2-[3-(4-hydroxy-3-methoxyphenyl)-2-(hydroxymethyl)-2,3-dihydro-1,4-benzodioxin-6-yl]-2,3-dihydrochromen-4-one
Formula: C25H22O10
Exact mass: 482.1212969
SMILES: COC1=C(C=CC(=C1)C2C(OC3=C(O2)C=C(C=C3)C4C(C(=O)C5=C(C=C(C=C5O4)O)O)O)CO)O
InChI: InChI=1S/C25H22O10/c1-32-17-6-11(2-4-14(17)28)24-20(10-26)33-16-5-3-12(7-18(16)34-24)25-23(31)22(30)21-15(29)8-13(27)9-19(21)35-25/h2-9,20,23-29,31H,10H2,1H3
Instrument: Exploris 240 Orbitrap Thermo Scientific
Instrument type: LC-ESI-QFT
Ms type: MS2
Ion mode: POSITIVE
Ionization: ESI
Fragmentation mode: HCD
Collision energy: 15 % (nominal)
Resolution: 17500
Column name: XBridge C18 3.5um, 2.1x50mm, Waters
Retention time: 6.153 min
Base peak: 483.1283
Precursor m/z: 483.1286
Precursor type: [M+H]+
m/z	relative intensity	assigned
131.0489	84	C9H7O+
137.0597	86	C8H9O2+
147.0439	40	C9H7O2+
153.0182	292	C7H5O4+
161.0598	25	C10H9O2+
162.0674	48	C10H10O2+
163.0753	911	C10H11O2+
165.0546	11	C9H9O3+
179.0706	50	C10H11O3+
180.0783	48	C10H12O3+
195.0288	183	C9H7O5+
203.0339	8	C11H7O4+
257.0446	19	C14H9O5+
271.0967	22	C16H15O4+
283.0604	13	C16H11O5+
283.0968	27	C17H15O4+
301.107	130	C17H17O5+
311.055	114	C17H11O6+
329.0653	135	C17H13O7+
341.0657	34	C18H13O7+
407.1124	21	C23H19O7+
419.1144	67	C24H19O7+
433.0925	89	C24H17O8+
435.1074	288	C24H19O8+
437.123	191	C24H21O8+
447.1079	147	C25H19O8+
465.1179	999	C25H21O9+
