Mass spectrum: EQ; LC-ESI-QFT; MS2; CE: 45%; R=17500; [M+H]+
Name: EQ
Name: Ethoxyquin
Name: 6-ethoxy-2,2,4-trimethyl-1H-quinoline
Formula: C14H19NO
Exact mass: 217.1467
SMILES: CCOC1=CC2=C(C=C1)NC(C=C2C)(C)C
InChI: InChI=1S/C14H19NO/c1-5-16-11-6-7-13-12(8-11)10(2)9-14(3,4)15-13/h6-9,15H,5H2,1-4H3
Instrument: Exploris 240 Orbitrap Thermo Scientific
Instrument type: LC-ESI-QFT
Ms type: MS2
Ion mode: POSITIVE
Ionization: ESI
Fragmentation mode: HCD
Collision energy: 45 % (nominal)
Resolution: 17500
Column name: XBridge C18 3.5um, 2.1x50mm, Waters
Retention time: 5.669 min
Base peak: 218.1536
Precursor m/z: 218.1539
Precursor type: [M+H]+
m/z	relative intensity	assigned
148.0756	85	C9H10NO+
176.107	101	C11H14NO+
188.1069	50	C12H14NO+
189.1147	58	C12H15NO+
190.1227	148	C12H16NO+
202.1226	51	C13H16NO+
218.154	999	C14H20NO+
