Mass spectrum: Silibinin; LC-ESI-QFT; MS2; CE: 120%; R=17500; [M+H]+
Name: Silibinin
Name: Silymarin
Name: 3,5,7-trihydroxy-2-[3-(4-hydroxy-3-methoxyphenyl)-2-(hydroxymethyl)-2,3-dihydro-1,4-benzodioxin-6-yl]-2,3-dihydrochromen-4-one
Formula: C25H22O10
Exact mass: 482.1212969
SMILES: COC1=C(C=CC(=C1)C2C(OC3=C(O2)C=C(C=C3)C4C(C(=O)C5=C(C=C(C=C5O4)O)O)O)CO)O
InChI: InChI=1S/C25H22O10/c1-32-17-6-11(2-4-14(17)28)24-20(10-26)33-16-5-3-12(7-18(16)34-24)25-23(31)22(30)21-15(29)8-13(27)9-19(21)35-25/h2-9,20,23-29,31H,10H2,1H3
Instrument: Exploris 240 Orbitrap Thermo Scientific
Instrument type: LC-ESI-QFT
Ms type: MS2
Ion mode: POSITIVE
Ionization: ESI
Fragmentation mode: HCD
Collision energy: 120 % (nominal)
Resolution: 17500
Column name: XBridge C18 3.5um, 2.1x50mm, Waters
Retention time: 6.153 min
Base peak: 483.1283
Precursor m/z: 483.1286
Precursor type: [M+H]+
m/z	relative intensity	assigned
53.0385	91	C4H5+
55.0178	123	C3H3O+
63.0229	80	C5H3+
65.0386	999	C5H5+
66.0464	85	C5H6+
67.0178	95	C4H3O+
67.054	17	C5H7+
68.997	498	C3HO2+
69.0334	117	C4H5O+
75.023	16	C6H3+
77.0385	362	C6H5+
78.0464	135	C6H6+
79.0179	38	C5H3O+
79.0541	111	C6H7+
81.0334	91	C5H5O+
89.0385	329	C7H5+
90.0465	52	C7H6+
91.0542	705	C7H7+
93.0336	39	C6H5O+
94.0414	221	C6H6O+
95.0491	160	C6H7O+
97.0283	36	C5H5O2+
102.0464	312	C8H6+
103.0542	258	C8H7+
107.0491	184	C7H7O+
109.0285	27	C6H5O2+
111.0443	42	C6H7O2+
115.0542	225	C9H7+
118.0413	134	C8H6O+
119.0492	174	C8H7O+
121.0284	138	C7H5O2+
122.036	91	C7H6O2+
127.0544	72	C10H7+
128.0619	146	C10H8+
129.0703	29	C10H9+
131.0492	75	C9H7O+
134.0362	34	C8H6O2+
135.0443	51	C8H7O2+
137.023	34	C7H5O3+
137.0597	37	C8H9O2+
139.0543	58	C11H7+
141.0698	41	C11H9+
145.0652	31	C10H9O+
146.0366	53	C9H6O2+
147.044	63	C9H7O2+
152.0616	103	C12H8+
157.0648	39	C11H9O+
165.0699	97	C13H9+
176.0623	35	C14H8+
