Mass spectrum: 2'-Deoxyguanosine; LC-ESI-QFT; MS2; CE: 75%; R=17500; [M+H]+
Name: 2'-Deoxyguanosine
Name: CID 638
Name: 2-amino-9-[4-hydroxy-5-(hydroxymethyl)oxolan-2-yl]-3H-purin-6-one
Formula: C10H13N5O4
Exact mass: 267.0967539
SMILES: C1C(C(OC1N2C=NC3=C2N=C(NC3=O)N)CO)O
InChI: InChI=1S/C10H13N5O4/c11-10-13-8-7(9(18)14-10)12-3-15(8)6-1-4(17)5(2-16)19-6/h3-6,16-17H,1-2H2,(H3,11,13,14,18)
Instrument: Exploris 240 Orbitrap Thermo Scientific
Instrument type: LC-ESI-QFT
Ms type: MS2
Ion mode: POSITIVE
Ionization: ESI
Fragmentation mode: HCD
Collision energy: 75 % (nominal)
Resolution: 17500
Column name: XBridge C18 3.5um, 2.1x50mm, Waters
Retention time: 1.694 min
Base peak: 152.0566
Precursor m/z: 268.104
Precursor type: [M+H]+
m/z	relative intensity	assigned
53.0385	10	C4H5+
55.0291	10	C2H3N2+
57.0334	11	C3H5O+
69.0334	26	C4H5O+
71.049	24	C4H7O+
73.0284	42	C3H5O2+
80.0242	4	C3H2N3+
81.0332	9	C5H5O+
82.0399	9	C3H4N3+
99.0439	17	C5H7O2+
107.0353	5	C4H3N4+
109.0508	32	C4H5N4+
110.0348	244	C4H4N3O+
117.0546	6	C5H9O3+
128.0455	23	C4H6N3O2+
134.046	21	C5H4N5+
135.0301	590	C5H3N4O+
152.0566	999	C5H6N5O+
153.0406	159	C5H5N4O2+
