Mass spectrum: Naringenin; LC-ESI-QFT; MS2; CE: 45%; R=17500; [M-H]-
Name: Naringenin
Name: (+-)-Naringenin
Name: 5,7-dihydroxy-2-(4-hydroxyphenyl)-2,3-dihydrochromen-4-one
Formula: C15H12O5
Exact mass: 272.068473484
SMILES: C1C(OC2=CC(=CC(=C2C1=O)O)O)C3=CC=C(C=C3)O
InChI: InChI=1S/C15H12O5/c16-9-3-1-8(2-4-9)13-7-12(19)15-11(18)5-10(17)6-14(15)20-13/h1-6,13,16-18H,7H2
Instrument: Exploris 240 Orbitrap Thermo Scientific
Instrument type: LC-ESI-QFT
Ms type: MS2
Ion mode: NEGATIVE
Ionization: ESI
Fragmentation mode: HCD
Collision energy: 45 % (nominal)
Resolution: 17500
Column name: XBridge C18 3.5um, 2.1x50mm, Waters
Retention time: 6.319 min
Base peak: 271.0611
Precursor m/z: 271.0612
Precursor type: [M-H]-
m/z	relative intensity	assigned
63.024	45	C5H3-
65.0033	63	C4HO-
83.0138	76	C4H3O2-
93.0345	127	C6H5O-
107.0138	239	C6H3O2-
108.9927	6	C5HO3-
119.0502	662	C8H7O-
121.0294	6	C7H5O2-
125.0245	11	C6H5O3-
145.0297	13	C9H5O2-
151.0036	999	C7H3O4-
161.0606	13	C10H9O2-
165.0193	43	C8H5O4-
177.0193	107	C9H5O4-
185.0607	10	C12H9O2-
187.0395	12	C11H7O3-
227.0717	15	C14H11O3-
253.051	10	C15H9O4-
271.0611	183	C15H11O5-
