Mass spectrum: Ellagic Acid; LC-ESI-QFT; MS2; CE: 60%; R=17500; [M-H]-
Name: Ellagic Acid
Name: 6,7,13,14-tetrahydroxy-2,9-dioxatetracyclo[6.6.2.04,16.011,15]hexadeca-1(15),4,6,8(16),11,13-hexaene-3,10-dione
Formula: C14H6O8
Exact mass: 302.006267152
SMILES: C1=C2C3=C(C(=C1O)O)OC(=O)C4=CC(=C(C(=C43)OC2=O)O)O
InChI: InChI=1S/C14H6O8/c15-5-1-3-7-8-4(14(20)22-11(7)9(5)17)2-6(16)10(18)12(8)21-13(3)19/h1-2,15-18H
Instrument: Exploris 240 Orbitrap Thermo Scientific
Instrument type: LC-ESI-QFT
Ms type: MS2
Ion mode: NEGATIVE
Ionization: ESI
Fragmentation mode: HCD
Collision energy: 60 % (nominal)
Resolution: 17500
Column name: XBridge C18 3.5um, 2.1x50mm, Waters
Retention time: 4.930 min
Base peak: 300.9989
Precursor m/z: 300.999
Precursor type: [M-H]-
m/z	relative intensity	assigned
117.0347	21	C8H5O-
129.0346	54	C9H5O-
133.0293	13	C8H5O2-
145.0294	113	C9H5O2-
157.0294	53	C10H5O2-
161.0241	15	C9H5O3-
173.0244	141	C10H5O3-
184.0169	6	C11H4O3-
185.0243	187	C11H5O3-
199.0037	18	C11H3O4-
200.012	21	C11H4O4-
201.0194	206	C11H5O4-
213.0201	15	C12H5O4-
216.0059	10	C11H4O5-
217.0142	49	C11H5O5-
226.9987	61	C12H3O5-
228.0061	28	C12H4O5-
229.0141	268	C12H5O5-
240.0063	13	C13H4O5-
244.0012	26	C12H4O6-
245.0092	159	C12H5O6-
254.994	36	C13H3O6-
257.0094	97	C13H5O6-
273.0038	27	C13H5O7-
283.9963	284	C14H4O7-
299.991	301	C14H4O8-
300.999	999	C14H5O8-
