Mass spectrum: Cis-Dihydroanatoxin-A; LC-ESI-QFT; MS2; CE: 45%; R=17500; [M+H]+
Name: Cis-Dihydroanatoxin-A
Name: 1-[(1R,2S,6R)-9-azabicyclo[4.2.1]nonan-2-yl]ethanone
Formula: C10H17NO
Exact mass: 167.1310142
SMILES: CC(=O)[C@H]1CCC[C@@H]2CC[C@H]1N2
InChI: InChI=1S/C10H17NO/c1-7(12)9-4-2-3-8-5-6-10(9)11-8/h8-11H,2-6H2,1H3/t8-,9-,10-/m1/s1
Instrument: Exploris 240 Orbitrap Thermo Scientific
Instrument type: LC-ESI-QFT
Ms type: MS2
Ion mode: POSITIVE
Ionization: ESI
Fragmentation mode: HCD
Collision energy: 45 % (nominal)
Resolution: 17500
Column name: XBridge C18 3.5um, 2.1x50mm, Waters
Retention time: 1.752 min
Base peak: 168.1382
Precursor m/z: 168.1383
Precursor type: [M+H]+
m/z	relative intensity	assigned
43.0178	21	C2H3O+
44.0494	6	C2H6N+
56.0495	37	C3H6N+
67.0543	3	C5H7+
70.0651	3	C4H8N+
72.0443	2	C3H6NO+
80.0492	3	C5H6N+
81.0699	10	C6H9+
91.0542	5	C7H7+
93.0699	19	C7H9+
105.0698	4	C8H9+
107.0856	11	C8H11+
110.0966	9	C7H12N+
125.096	23	C8H13O+
133.1012	18	C10H13+
150.1279	8	C10H16N+
168.1383	999	C10H18NO+
