Mass spectrum: Tempo; LC-ESI-QFT; MS2; CE: 75%; R=17500; [M+H]+
Name: Tempo
Name: 2,2,6,6-Tetramethyl-1-piperidinyloxy
Formula: C9H18NO
Exact mass: 156.138839198
SMILES: CC1(CCCC(N1[O])(C)C)C
InChI: InChI=1S/C9H18NO/c1-8(2)6-5-7-9(3,4)10(8)11/h5-7H2,1-4H3
Instrument: Exploris 240 Orbitrap Thermo Scientific
Instrument type: LC-ESI-QFT
Ms type: MS2
Ion mode: POSITIVE
Ionization: ESI
Fragmentation mode: HCD
Collision energy: 75 % (nominal)
Resolution: 17500
Column name: XBridge C18 3.5um, 2.1x50mm, Waters
Retention time: 7.067 min
Base peak: 142.1225
Precursor m/z: 157.1461
Precursor type: [M+H]+
m/z	relative intensity	assigned
41.0385	11	C3H5+
43.0178	4	C2H3O+
43.0541	3	C3H7+
55.0542	22	C4H7+
56.0494	12	C3H6N+
56.0621	2	C4H8+
57.0572	6	C3H7N+
57.0699	7	C4H9+
58.0651	3	C3H8N+
60.0443	2	C2H6NO+
67.0542	30	C5H7+
69.0698	296	C5H9+
70.0649	4	C4H8N+
71.0489	3	C4H7O+
72.0807	8	C4H10N+
74.06	36	C3H8NO+
79.054	3	C6H7+
81.0699	14	C6H9+
82.065	6	C5H8N+
83.0491	8	C5H7O+
83.0855	6	C6H11+
84.0808	24	C5H10N+
86.06	101	C4H8NO+
96.0809	13	C6H10N+
97.065	3	C6H9O+
100.0755	5	C5H10NO+
107.0858	3	C8H11+
109.1011	261	C8H13+
110.0965	8	C7H12N+
124.1121	11	C8H14N+
125.1197	6	C8H15N+
142.1226	999	C8H16NO+
