Mass spectrum: AP; LC-ESI-QFT; MS2; CE: 30%; R=17500; [M-H]-
Name: AP
Name: Ascorbyl palmitate
Name: [(2S)-2-[(2R)-3,4-dihydroxy-5-oxo-2H-furan-2-yl]-2-hydroxyethyl] hexadecanoate
Formula: C22H38O7
Exact mass: 414.2618
SMILES: CCCCCCCCCCCCCCCC(=O)OC[C@@H]([C@@H]1C(=C(C(=O)O1)O)O)O
InChI: InChI=1S/C22H38O7/c1-2-3-4-5-6-7-8-9-10-11-12-13-14-15-18(24)28-16-17(23)21-19(25)20(26)22(27)29-21/h17,21,23,25-26H,2-16H2,1H3/t17-,21+/m0/s1
Instrument: Exploris 240 Orbitrap Thermo Scientific
Instrument type: LC-ESI-QFT
Ms type: MS2
Ion mode: NEGATIVE
Ionization: ESI
Fragmentation mode: HCD
Collision energy: 30 % (nominal)
Resolution: 17500
Column name: XBridge C18 3.5um, 2.1x50mm, Waters
Retention time: 16.771 min
Base peak: 373.2593
Precursor m/z: 413.2545
Precursor type: [M-H]-
m/z	relative intensity	assigned
85.0294	449	C4H5O2-
87.0091	74	C3H3O3-
115.0036	346	C4H3O4-
157.0142	537	C6H5O5-
255.2328	999	C16H31O2-
413.2538	188	C22H37O7-
