Mass spectrum: (-)-Epigallocatechin Gallate; LC-ESI-QFT; MS2; CE: 150%; R=17500; [M-H]-
Name: (-)-Epigallocatechin Gallate
Name: Tea, ext.
Name: [5,7-dihydroxy-2-(3,4,5-trihydroxyphenyl)-3,4-dihydro-2H-chromen-3-yl] 3,4,5-trihydroxybenzoate
Formula: C22H18O11
Exact mass: 458.084911396
SMILES: C1C(C(OC2=CC(=CC(=C21)O)O)C3=CC(=C(C(=C3)O)O)O)OC(=O)C4=CC(=C(C(=C4)O)O)O
InChI: InChI=1S/C22H18O11/c23-10-5-12(24)11-7-18(33-22(31)9-3-15(27)20(30)16(28)4-9)21(32-17(11)6-10)8-1-13(25)19(29)14(26)2-8/h1-6,18,21,23-30H,7H2
Instrument: Exploris 240 Orbitrap Thermo Scientific
Instrument type: LC-ESI-QFT
Ms type: MS2
Ion mode: NEGATIVE
Ionization: ESI
Fragmentation mode: HCD
Collision energy: 150 % (nominal)
Resolution: 17500
Column name: XBridge C18 3.5um, 2.1x50mm, Waters
Retention time: 3.421 min
Base peak: 457.0777
Precursor m/z: 457.0776
Precursor type: [M-H]-
m/z	relative intensity	assigned
51.0241	182	C4H3-
57.0346	999	C3H5O-
65.0034	226	C4HO-
67.019	655	C4H3O-
69.0346	378	C4H5O-
79.0189	645	C5H3O-
81.0346	248	C5H5O-
83.014	217	C4H3O2-
95.0141	229	C5H3O2-
97.0296	181	C5H5O2-
107.0138	114	C6H3O2-
109.0295	329	C6H5O2-
123.0085	302	C6H3O3-
124.0167	367	C6H4O3-
