Mass spectrum: (-)-Epigallocatechin Gallate; LC-ESI-QFT; MS2; CE: 120%; R=17500; [M+H]+
Name: (-)-Epigallocatechin Gallate
Name: Tea, ext.
Name: [5,7-dihydroxy-2-(3,4,5-trihydroxyphenyl)-3,4-dihydro-2H-chromen-3-yl] 3,4,5-trihydroxybenzoate
Formula: C22H18O11
Exact mass: 458.0849114
SMILES: C1C(C(OC2=CC(=CC(=C21)O)O)C3=CC(=C(C(=C3)O)O)O)OC(=O)C4=CC(=C(C(=C4)O)O)O
InChI: InChI=1S/C22H18O11/c23-10-5-12(24)11-7-18(33-22(31)9-3-15(27)20(30)16(28)4-9)21(32-17(11)6-10)8-1-13(25)19(29)14(26)2-8/h1-6,18,21,23-30H,7H2
Instrument: Exploris 240 Orbitrap Thermo Scientific
Instrument type: LC-ESI-QFT
Ms type: MS2
Ion mode: POSITIVE
Ionization: ESI
Fragmentation mode: HCD
Collision energy: 120 % (nominal)
Resolution: 17500
Column name: XBridge C18 3.5um, 2.1x50mm, Waters
Retention time: 3.432 min
Base peak: 132.9582
Precursor m/z: 459.0922
Precursor type: [M+H]+
m/z	relative intensity	assigned
50.0151	39	C4H2+
51.023	202	C4H3+
53.0022	999	C3HO+
55.0178	85	C3H3O+
65.0386	394	C5H5+
67.0178	46	C4H3O+
67.0542	50	C5H7+
68.9971	160	C3HO2+
71.0127	30	C3H3O2+
77.0386	39	C6H5+
79.0178	293	C5H3O+
79.0545	30	C6H7+
89.0386	45	C7H5+
91.054	11	C7H7+
93.0336	30	C6H5O+
95.049	51	C6H7O+
97.0282	23	C5H5O2+
107.0492	18	C7H7O+
111.044	31	C6H7O2+
121.0284	75	C7H5O2+
139.0391	150	C7H7O3+
