Mass spectrum: Drometrizole; LC-ESI-QFT; MS2; CE: 75%; R=17500; [M+H]+
Name: Drometrizole
Name: 2-(benzotriazol-2-yl)-4-methylphenol
Formula: C13H11N3O
Exact mass: 225.090212
SMILES: CC1=CC(=C(C=C1)O)N2N=C3C=CC=CC3=N2
InChI: InChI=1S/C13H11N3O/c1-9-6-7-13(17)12(8-9)16-14-10-4-2-3-5-11(10)15-16/h2-8,17H,1H3
Instrument: Exploris 240 Orbitrap Thermo Scientific
Instrument type: LC-ESI-QFT
Ms type: MS2
Ion mode: POSITIVE
Ionization: ESI
Fragmentation mode: HCD
Collision energy: 75 % (nominal)
Resolution: 17500
Column name: XBridge C18 3.5um, 2.1x50mm, Waters
Retention time: 13.562 min
Base peak: 226.0974
Precursor m/z: 226.0975
Precursor type: [M+H]+
m/z	relative intensity	assigned
53.0386	111	C4H5+
65.0386	88	C5H5+
77.0386	283	C6H5+
79.0542	999	C6H7+
92.0494	88	C6H6N+
94.0417	9	C6H6O+
94.065	17	C6H8N+
95.0492	88	C6H7O+
105.0446	146	C6H5N2+
106.0525	59	C6H6N2+
107.0491	530	C7H7O+
120.0556	584	C6H6N3+
128.0619	31	C10H8+
130.0648	8	C9H8N+
152.0625	18	C12H8+
153.0705	11	C12H9+
154.0651	132	C11H8N+
155.0733	67	C11H9N+
168.0816	22	C12H10N+
180.0812	35	C13H10N+
181.0759	14	C12H9N2+
182.0843	43	C12H10N2+
183.067	114	C12H9NO+
196.0756	15	C13H10NO+
