Mass spectrum: AO1024; LC-ESI-QFT; MS2; CE: 150%; R=17500; [M+H]+
Name: AO1024
Name: 1,2-Bis(3,5-di-tert-butyl-4-hydroxyhydrocinnamoyl)hydrazine
Name: 3-(3,5-ditert-butyl-4-hydroxyphenyl)-N'-[3-(3,5-ditert-butyl-4-hydroxyphenyl)propanoyl]propanehydrazide
Formula: C34H52N2O4
Exact mass: 552.3927081
SMILES: CC(C)(C)C1=CC(=CC(=C1O)C(C)(C)C)CCC(=O)NNC(=O)CCC2=CC(=C(C(=C2)C(C)(C)C)O)C(C)(C)C
InChI: InChI=1S/C34H52N2O4/c1-31(2,3)23-17-21(18-24(29(23)39)32(4,5)6)13-15-27(37)35-36-28(38)16-14-22-19-25(33(7,8)9)30(40)26(20-22)34(10,11)12/h17-20,39-40H,13-16H2,1-12H3,(H,35,37)(H,36,38)
Instrument: Exploris 240 Orbitrap Thermo Scientific
Instrument type: LC-ESI-QFT
Ms type: MS2
Ion mode: POSITIVE
Ionization: ESI
Fragmentation mode: HCD
Collision energy: 150 % (nominal)
Resolution: 17500
Column name: XBridge C18 3.5um, 2.1x50mm, Waters
Retention time: 15.091 min
Base peak: 570.4265
Precursor m/z: 553.4
Precursor type: [M+H]+
m/z	relative intensity	assigned
65.0386	284	C5H5+
67.0543	52	C5H7+
77.0386	374	C6H5+
78.0464	54	C6H6+
79.0542	341	C6H7+
81.0334	25	C5H5O+
81.07	13	C6H9+
89.0386	12	C7H5+
91.0542	999	C7H7+
93.07	26	C7H9+
95.0491	281	C6H7O+
102.0467	16	C8H6+
103.0542	141	C8H7+
104.0621	42	C8H8+
105.0447	250	C6H5N2+
105.0698	224	C8H9+
107.0491	815	C7H7O+
115.0542	172	C9H7+
116.0623	25	C9H8+
117.0701	93	C9H9+
119.0496	45	C8H7O+
119.0855	47	C9H11+
127.0543	20	C10H7+
128.0622	124	C10H8+
129.0702	76	C10H9+
130.078	24	C10H10+
131.0494	37	C9H7O+
131.0858	29	C10H11+
133.0648	57	C9H9O+
141.0696	23	C11H9+
145.0654	14	C10H9O+
145.1007	20	C11H13+
147.0807	37	C10H11O+
155.0609	10	C10H7N2+
155.0862	16	C12H11+
