Mass spectrum: Tempo; LC-ESI-QFT; MS2; CE: 180%; R=17500; [M+H]+
Name: Tempo
Name: 2,2,6,6-Tetramethyl-1-piperidinyloxy
Formula: C9H18NO
Exact mass: 156.138839198
SMILES: CC1(CCCC(N1[O])(C)C)C
InChI: InChI=1S/C9H18NO/c1-8(2)6-5-7-9(3,4)10(8)11/h5-7H2,1-4H3
Instrument: Exploris 240 Orbitrap Thermo Scientific
Instrument type: LC-ESI-QFT
Ms type: MS2
Ion mode: POSITIVE
Ionization: ESI
Fragmentation mode: HCD
Collision energy: 180 % (nominal)
Resolution: 17500
Column name: XBridge C18 3.5um, 2.1x50mm, Waters
Retention time: 7.067 min
Base peak: 142.1225
Precursor m/z: 157.1461
Precursor type: [M+H]+
m/z	relative intensity	assigned
41.0385	999	C3H5+
42.0338	851	C2H4N+
43.0177	116	C2H3O+
53.0386	396	C4H5+
54.0338	166	C3H4N+
55.0542	378	C4H7+
56.0495	461	C3H6N+
57.0573	241	C3H7N+
58.0289	55	C2H4NO+
65.0386	166	C5H5+
67.0418	78	C4H5N+
67.0543	376	C5H7+
68.0496	89	C4H6N+
69.0699	633	C5H9+
74.0602	83	C3H8NO+
79.0542	188	C6H7+
81.0701	79	C6H9+
82.0654	123	C5H8N+
94.0651	129	C6H8N+
