Mass spectrum: Homoanatoxin-a; LC-ESI-QFT; MS2; CE: 120%; R=17500; [M+H]+
Name: Homoanatoxin-a
Name: 1-[(1R,6R)-9-azabicyclo[4.2.1]non-2-en-2-yl]propan-1-one
Formula: C11H17NO
Exact mass: 179.1310142
SMILES: CCC(=O)C1=CCC[C@@H]2CC[C@H]1N2
InChI: InChI=1S/C11H17NO/c1-2-11(13)9-5-3-4-8-6-7-10(9)12-8/h5,8,10,12H,2-4,6-7H2,1H3/t8-,10-/m1/s1
Instrument: Exploris 240 Orbitrap Thermo Scientific
Instrument type: LC-ESI-QFT
Ms type: MS2
Ion mode: POSITIVE
Ionization: ESI
Fragmentation mode: HCD
Collision energy: 120 % (nominal)
Resolution: 17500
Column name: XBridge C18 3.5um, 2.1x50mm, Waters
Retention time: 2.548 min
Base peak: 180.1381
Precursor m/z: 180.1383
Precursor type: [M+H]+
m/z	relative intensity	assigned
41.0386	34	C3H5+
43.0178	84	C2H3O+
53.0386	59	C4H5+
55.0542	160	C4H7+
56.0495	126	C3H6N+
57.0335	999	C3H5O+
65.0386	147	C5H5+
67.0418	47	C4H5N+
67.0542	221	C5H7+
68.0496	94	C4H6N+
77.0387	122	C6H5+
79.0543	327	C6H7+
80.0494	83	C5H6N+
81.07	128	C6H9+
82.0654	86	C5H8N+
91.0542	518	C7H7+
93.07	81	C7H9+
95.0495	56	C6H7O+
105.07	83	C8H9+
106.0657	45	C7H8N+
115.0544	86	C9H7+
117.0701	70	C9H9+
