Mass spectrum: PBNA; LC-ESI-QFT; MS2; CE: 180%; R=17500; [M+H]+
Name: PBNA
Name: N-Phenyl-2-naphthylamine
Name: N-phenylnaphthalen-2-amine
Formula: C16H13N
Exact mass: 219.1048
SMILES: C1=CC=C(C=C1)NC2=CC3=CC=CC=C3C=C2
InChI: InChI=1S/C16H13N/c1-2-8-15(9-3-1)17-16-11-10-13-6-4-5-7-14(13)12-16/h1-12,17H
Instrument: Exploris 240 Orbitrap Thermo Scientific
Instrument type: LC-ESI-QFT
Ms type: MS2
Ion mode: POSITIVE
Ionization: ESI
Fragmentation mode: HCD
Collision energy: 180 % (nominal)
Resolution: 17500
Column name: XBridge C18 3.5um, 2.1x50mm, Waters
Retention time: 12.080 min
Base peak: 220.1117
Precursor m/z: 220.1121
Precursor type: [M+H]+
m/z	relative intensity	assigned
65.0385	127	C5H5+
66.0464	72	C5H6+
93.0571	55	C6H7N+
115.0541	999	C9H7+
116.0619	87	C9H8+
126.0463	58	C10H6+
202.0777	150	C16H10+
