Mass spectrum: 3',4,4',5,7-Pentahydroxyflavan; LC-ESI-QFT; MS2; CE: 120%; R=17500; [M+H]+
Name: 3',4,4',5,7-Pentahydroxyflavan
Name: 2-(3,4-dihydroxyphenyl)-3,4-dihydro-2H-chromene-4,5,7-triol
Formula: C15H14O6
Exact mass: 290.0790382
SMILES: C1C(C2=C(C=C(C=C2OC1C3=CC(=C(C=C3)O)O)O)O)O
InChI: InChI=1S/C15H14O6/c16-8-4-11(19)15-12(20)6-13(21-14(15)5-8)7-1-2-9(17)10(18)3-7/h1-5,12-13,16-20H,6H2
Instrument: Exploris 240 Orbitrap Thermo Scientific
Instrument type: LC-ESI-QFT
Ms type: MS2
Ion mode: POSITIVE
Ionization: ESI
Fragmentation mode: HCD
Collision energy: 120 % (nominal)
Resolution: 17500
Column name: XBridge C18 3.5um, 2.1x50mm, Waters
Retention time: 2.891 min
Base peak: 291.0861
Precursor m/z: 291.0863
Precursor type: [M+H]+
m/z	relative intensity	assigned
51.0229	326	C4H3+
53.0386	179	C4H5+
55.0179	324	C3H3O+
55.0542	59	C4H7+
65.0386	704	C5H5+
67.0178	110	C4H3O+
67.0543	121	C5H7+
68.9971	427	C3HO2+
69.0335	50	C4H5O+
71.013	80	C3H3O2+
77.0385	719	C6H5+
79.0543	53	C6H7+
81.0335	49	C5H5O+
83.0493	44	C5H7O+
89.0388	30	C7H5+
91.0542	639	C7H7+
93.0333	78	C6H5O+
95.0491	202	C6H7O+
103.054	65	C8H7+
105.0335	216	C7H5O+
105.0697	50	C8H9+
111.0441	109	C6H7O2+
115.0541	351	C9H7+
119.0491	154	C8H7O+
123.044	999	C7H7O2+
131.0496	24	C9H7O+
139.0389	96	C7H7O3+
143.0497	18	C10H7O+
147.0443	59	C9H7O2+
