Mass spectrum: Homoanatoxin-a; LC-ESI-QFT; MS2; CE: 75%; R=17500; [M+H]+
Name: Homoanatoxin-a
Name: 1-[(1R,6R)-9-azabicyclo[4.2.1]non-2-en-2-yl]propan-1-one
Formula: C11H17NO
Exact mass: 179.1310142
SMILES: CCC(=O)C1=CCC[C@@H]2CC[C@H]1N2
InChI: InChI=1S/C11H17NO/c1-2-11(13)9-5-3-4-8-6-7-10(9)12-8/h5,8,10,12H,2-4,6-7H2,1H3/t8-,10-/m1/s1
Instrument: Exploris 240 Orbitrap Thermo Scientific
Instrument type: LC-ESI-QFT
Ms type: MS2
Ion mode: POSITIVE
Ionization: ESI
Fragmentation mode: HCD
Collision energy: 75 % (nominal)
Resolution: 17500
Column name: XBridge C18 3.5um, 2.1x50mm, Waters
Retention time: 2.548 min
Base peak: 180.1381
Precursor m/z: 180.1383
Precursor type: [M+H]+
m/z	relative intensity	assigned
43.0178	20	C2H3O+
55.0542	21	C4H7+
56.0495	15	C3H6N+
57.0335	999	C3H5O+
59.0491	26	C3H7O+
67.0541	46	C5H7+
68.0495	29	C4H6N+
69.0699	9	C5H9+
70.0653	13	C4H8N+
79.0542	100	C6H7+
80.0496	32	C5H6N+
81.0698	37	C6H9+
82.065	28	C5H8N+
85.0647	8	C5H9O+
91.0543	151	C7H7+
93.0699	144	C7H9+
95.0494	10	C6H7O+
95.0857	22	C7H11+
105.0699	61	C8H9+
106.0653	67	C7H8N+
107.0855	59	C8H11+
108.0808	25	C7H10N+
117.07	101	C9H9+
119.0859	25	C9H11+
120.0812	11	C8H10N+
121.1013	17	C9H13+
124.1124	21	C8H14N+
130.0774	21	C10H10+
135.1169	52	C10H15+
137.0962	13	C9H13O+
145.1012	128	C11H13+
163.112	68	C11H15O+
180.139	21	C11H18NO+
