Mass spectrum: Silibinin; LC-ESI-QFT; MS2; CE: 60%; R=17500; [M-H]-
Name: Silibinin
Name: Silymarin
Name: 3,5,7-trihydroxy-2-[3-(4-hydroxy-3-methoxyphenyl)-2-(hydroxymethyl)-2,3-dihydro-1,4-benzodioxin-6-yl]-2,3-dihydrochromen-4-one
Formula: C25H22O10
Exact mass: 482.121296904
SMILES: COC1=C(C=CC(=C1)C2C(OC3=C(O2)C=C(C=C3)C4C(C(=O)C5=C(C=C(C=C5O4)O)O)O)CO)O
InChI: InChI=1S/C25H22O10/c1-32-17-6-11(2-4-14(17)28)24-20(10-26)33-16-5-3-12(7-18(16)34-24)25-23(31)22(30)21-15(29)8-13(27)9-19(21)35-25/h2-9,20,23-29,31H,10H2,1H3
Instrument: Exploris 240 Orbitrap Thermo Scientific
Instrument type: LC-ESI-QFT
Ms type: MS2
Ion mode: NEGATIVE
Ionization: ESI
Fragmentation mode: HCD
Collision energy: 60 % (nominal)
Resolution: 17500
Column name: XBridge C18 3.5um, 2.1x50mm, Waters
Retention time: 6.163 min
Base peak: 481.1138
Precursor m/z: 481.114
Precursor type: [M-H]-
m/z	relative intensity	assigned
57.0345	222	C3H5O-
63.024	51	C5H3-
65.0032	69	C4HO-
83.0139	117	C4H3O2-
93.0346	23	C6H5O-
95.0141	13	C5H3O2-
96.0215	54	C5H4O2-
107.0137	122	C6H3O2-
109.0298	32	C6H5O2-
111.0088	22	C5H3O3-
121.0294	121	C7H5O2-
122.0376	26	C7H6O2-
123.0455	23	C7H7O2-
124.0165	283	C6H4O3-
125.0243	999	C6H5O3-
134.0373	49	C8H6O2-
135.0453	28	C8H7O2-
137.0246	55	C7H5O3-
139.0402	20	C7H7O3-
143.0502	17	C10H7O-
145.0298	33	C9H5O2-
146.0374	154	C9H6O2-
147.009	29	C8H3O3-
147.0453	38	C9H7O2-
149.0245	109	C8H5O3-
149.0606	18	C9H9O2-
150.0321	24	C8H6O3-
151.0037	398	C7H3O4-
152.0114	973	C7H4O4-
153.0196	60	C7H5O4-
159.0448	87	C10H7O2-
161.025	21	C9H5O3-
161.0611	37	C10H9O2-
162.0322	10	C9H6O3-
164.0479	80	C9H8O3-
165.0192	36	C8H5O4-
171.0453	31	C11H7O2-
173.0612	18	C11H9O2-
175.0399	20	C10H7O3-
178.9983	139	C8H3O5-
179.0713	12	C10H11O3-
180.0066	26	C8H4O5-
183.0451	34	C12H7O2-
185.0612	27	C12H9O2-
187.0398	79	C11H7O3-
188.0479	23	C11H8O3-
191.0354	29	C10H7O4-
199.0402	27	C12H7O3-
201.0556	44	C12H9O3-
211.0408	31	C13H7O3-
215.035	52	C12H7O4-
216.043	16	C12H8O4-
217.0515	31	C12H9O4-
227.0349	62	C13H7O4-
229.0505	45	C13H9O4-
245.0464	17	C13H9O5-
255.0292	47	C14H7O5-
273.0404	128	C14H9O6-
284.034	22	C15H8O6-
301.0356	21	C15H9O7-
