Mass spectrum: TPHP; LC-ESI-QFT; MS2; CE: 150%; R=17500; [M+H]+
Name: TPHP
Name: triphenyl phosphate
Formula: C18H15O4P
Exact mass: 326.0708
SMILES: C1=CC=C(C=C1)OP(=O)(OC2=CC=CC=C2)OC3=CC=CC=C3
InChI: InChI=1S/C18H15O4P/c19-23(20-16-10-4-1-5-11-16,21-17-12-6-2-7-13-17)22-18-14-8-3-9-15-18/h1-15H
Instrument: Exploris 240 Orbitrap Thermo Scientific
Instrument type: LC-ESI-QFT
Ms type: MS2
Ion mode: POSITIVE
Ionization: ESI
Fragmentation mode: HCD
Collision energy: 150 % (nominal)
Resolution: 17500
Column name: XBridge C18 3.5um, 2.1x50mm, Waters
Retention time: 11.247 min
Base peak: 327.0777
Precursor m/z: 327.0781
Precursor type: [M+H]+
m/z	relative intensity	assigned
50.0151	179	C4H2+
51.0229	999	C4H3+
77.0386	260	C6H5+
95.0491	262	C6H7O+
126.0461	81	C10H6+
139.0544	108	C11H7+
150.0463	72	C12H6+
152.062	270	C12H8+
169.065	128	C12H9O+
202.0778	262	C16H10+
203.084	62	C9H16O3P+
