Mass spectrum: Silibinin; LC-ESI-QFT; MS2; CE: 150%; R=17500; [M+H]+
Name: Silibinin
Name: Silymarin
Name: 3,5,7-trihydroxy-2-[3-(4-hydroxy-3-methoxyphenyl)-2-(hydroxymethyl)-2,3-dihydro-1,4-benzodioxin-6-yl]-2,3-dihydrochromen-4-one
Formula: C25H22O10
Exact mass: 482.1212969
SMILES: COC1=C(C=CC(=C1)C2C(OC3=C(O2)C=C(C=C3)C4C(C(=O)C5=C(C=C(C=C5O4)O)O)O)CO)O
InChI: InChI=1S/C25H22O10/c1-32-17-6-11(2-4-14(17)28)24-20(10-26)33-16-5-3-12(7-18(16)34-24)25-23(31)22(30)21-15(29)8-13(27)9-19(21)35-25/h2-9,20,23-29,31H,10H2,1H3
Instrument: Exploris 240 Orbitrap Thermo Scientific
Instrument type: LC-ESI-QFT
Ms type: MS2
Ion mode: POSITIVE
Ionization: ESI
Fragmentation mode: HCD
Collision energy: 150 % (nominal)
Resolution: 17500
Column name: XBridge C18 3.5um, 2.1x50mm, Waters
Retention time: 6.153 min
Base peak: 483.1283
Precursor m/z: 483.1286
Precursor type: [M+H]+
m/z	relative intensity	assigned
53.0023	25	C3HO+
53.0385	171	C4H5+
55.0178	104	C3H3O+
63.0229	197	C5H3+
65.0386	999	C5H5+
66.0464	137	C5H6+
67.018	27	C4H3O+
68.9971	500	C3HO2+
69.0337	43	C4H5O+
75.023	59	C6H3+
76.0309	44	C6H4+
77.0386	485	C6H5+
78.0464	149	C6H6+
79.018	40	C5H3O+
79.0541	86	C6H7+
81.0333	112	C5H5O+
89.0386	381	C7H5+
90.0465	63	C7H6+
91.0542	585	C7H7+
94.0412	189	C6H6O+
95.0492	199	C6H7O+
102.0463	241	C8H6+
103.0542	113	C8H7+
105.0336	79	C7H5O+
107.049	78	C7H7O+
109.0284	21	C6H5O2+
115.0542	254	C9H7+
118.0411	89	C8H6O+
119.0491	40	C8H7O+
126.0467	43	C10H6+
127.0546	55	C10H7+
128.0621	121	C10H8+
131.0495	23	C9H7O+
139.0543	80	C11H7+
151.0549	22	C12H7+
152.0618	93	C12H8+
165.0705	80	C13H9+
176.0621	38	C14H8+
