Mass spectrum: Kaempferol; LC-ESI-QFT; MS2; CE: 60%; R=17500; [M+H]+
Name: Kaempferol
Name: 3,5,7-trihydroxy-2-(4-hydroxyphenyl)chromen-4-one
Formula: C15H10O6
Exact mass: 286.047738
SMILES: C1=CC(=CC=C1C2=C(C(=O)C3=C(C=C(C=C3O2)O)O)O)O
InChI: InChI=1S/C15H10O6/c16-8-3-1-7(2-4-8)15-14(20)13(19)12-10(18)5-9(17)6-11(12)21-15/h1-6,16-18,20H
Instrument: Exploris 240 Orbitrap Thermo Scientific
Instrument type: LC-ESI-QFT
Ms type: MS2
Ion mode: POSITIVE
Ionization: ESI
Fragmentation mode: HCD
Collision energy: 60 % (nominal)
Resolution: 17500
Column name: XBridge C18 3.5um, 2.1x50mm, Waters
Retention time: 6.956 min
Base peak: 287.0548
Precursor m/z: 287.055
Precursor type: [M+H]+
m/z	relative intensity	assigned
68.997	31	C3HO2+
79.0543	9	C6H7+
105.0334	25	C7H5O+
107.0492	27	C7H7O+
109.0285	17	C6H5O2+
111.0076	41	C5H3O3+
121.0284	174	C7H5O2+
133.0283	34	C8H5O2+
135.0437	13	C8H7O2+
137.0235	57	C7H5O3+
145.0648	18	C10H9O+
147.044	45	C9H7O2+
153.0182	280	C7H5O4+
157.0649	23	C11H9O+
161.0593	12	C10H9O2+
165.0182	143	C8H5O4+
171.0443	14	C11H7O2+
183.0293	29	C8H7O5+
185.0594	33	C12H9O2+
189.0542	10	C11H9O3+
197.0602	9	C13H9O2+
203.0702	9	C12H11O3+
213.0545	97	C13H9O3+
231.0649	52	C13H11O4+
241.0499	50	C14H9O4+
258.0528	90	C14H10O5+
259.06	29	C14H11O5+
269.0437	12	C15H9O5+
287.0551	999	C15H11O6+
