Mass spectrum: N-(1-Methylheptyl)-N'-phenyl-p-phenylenediamine; LC-ESI-QFT; MS2; CE: 150%; R=17500; [M+H]+
Name: N-(1-Methylheptyl)-N'-phenyl-p-phenylenediamine
Name: 4-N-octan-2-yl-1-N-phenylbenzene-1,4-diamine
Formula: C20H28N2
Exact mass: 296.2252489
SMILES: CCCCCCC(C)NC1=CC=C(C=C1)NC2=CC=CC=C2
InChI: InChI=1S/C20H28N2/c1-3-4-5-7-10-17(2)21-19-13-15-20(16-14-19)22-18-11-8-6-9-12-18/h6,8-9,11-17,21-22H,3-5,7,10H2,1-2H3
Instrument: Exploris 240 Orbitrap Thermo Scientific
Instrument type: LC-ESI-QFT
Ms type: MS2
Ion mode: POSITIVE
Ionization: ESI
Fragmentation mode: HCD
Collision energy: 150 % (nominal)
Resolution: 17500
Column name: XBridge C18 3.5um, 2.1x50mm, Waters
Retention time: 10.936 min
Base peak: 297.2322
Precursor m/z: 297.2325
Precursor type: [M+H]+
m/z	relative intensity	assigned
51.0229	21	C4H3+
53.0385	127	C4H5+
54.0336	19	C3H4N+
63.0228	38	C5H3+
65.0385	100	C5H5+
66.0464	161	C5H6+
67.0418	17	C4H5N+
77.0385	24	C6H5+
78.034	13	C5H4N+
79.0418	14	C5H5N+
80.0494	999	C5H6N+
81.0573	44	C5H7N+
90.0339	34	C6H4N+
91.0417	37	C6H5N+
92.0496	42	C6H6N+
93.0573	223	C6H7N+
105.0447	35	C6H5N2+
107.0603	675	C6H7N2+
108.0682	30	C6H8N2+
115.0541	34	C9H7+
117.0578	13	C8H7N+
118.0525	39	C7H6N2+
128.0621	12	C10H8+
129.0702	18	C10H9+
130.0648	24	C9H8N+
139.0541	50	C11H7+
140.0492	35	C10H6N+
143.073	12	C10H9N+
156.0809	27	C11H10N+
166.065	124	C12H8N+
167.0729	104	C12H9N+
181.0762	24	C12H9N2+
182.0844	34	C12H10N2+
183.092	18	C12H11N2+
