Mass spectrum: Isoliquiritigenin; LC-ESI-QFT; MS2; CE: 90%; R=17500; [M+H]+
Name: Isoliquiritigenin
Name: 1-(2,4-dihydroxyphenyl)-3-(4-hydroxyphenyl)prop-2-en-1-one
Formula: C15H12O4
Exact mass: 256.0735589
SMILES: C1=CC(=CC=C1C=CC(=O)C2=C(C=C(C=C2)O)O)O
InChI: InChI=1S/C15H12O4/c16-11-4-1-10(2-5-11)3-8-14(18)13-7-6-12(17)9-15(13)19/h1-9,16-17,19H
Instrument: Exploris 240 Orbitrap Thermo Scientific
Instrument type: LC-ESI-QFT
Ms type: MS2
Ion mode: POSITIVE
Ionization: ESI
Fragmentation mode: HCD
Collision energy: 90 % (nominal)
Resolution: 17500
Column name: XBridge C18 3.5um, 2.1x50mm, Waters
Retention time: 7.266 min
Base peak: 257.0806
Precursor m/z: 257.0808
Precursor type: [M+H]+
m/z	relative intensity	assigned
53.0385	122	C4H5+
55.0176	8	C3H3O+
65.0385	62	C5H5+
68.9971	134	C3HO2+
77.0384	24	C6H5+
81.0334	780	C5H5O+
91.0542	545	C7H7+
95.049	83	C6H7O+
96.0207	17	C5H4O2+
107.0492	28	C7H7O+
109.0283	84	C6H5O2+
115.0542	13	C9H7+
117.0334	28	C8H5O+
119.0491	342	C8H7O+
123.0439	10	C7H7O2+
127.0389	18	C6H7O3+
137.0233	999	C7H5O3+
141.07	20	C11H9+
147.0441	66	C9H7O2+
153.0698	21	C12H9+
165.07	57	C13H9+
