Mass spectrum: N-6-methyl-2-deoxyadenosine; LC-ESI-QFT; MS2; CE: 75%; R=17500; [M+H]+
Name: N-6-methyl-2-deoxyadenosine
Formula: C11H15N5O3
Exact mass: 265.1174894
SMILES: CNC1=C2C(=NC=N1)N(C=N2)C3CC(C(O3)CO)O
InChI: InChI=1S/C11H15N5O3/c1-12-10-9-11(14-4-13-10)16(5-15-9)8-2-6(18)7(3-17)19-8/h4-8,17-18H,2-3H2,1H3,(H,12,13,14)
Instrument: Exploris 240 Orbitrap Thermo Scientific
Instrument type: LC-ESI-QFT
Ms type: MS2
Ion mode: POSITIVE
Ionization: ESI
Fragmentation mode: HCD
Collision energy: 75 % (nominal)
Resolution: 17500
Column name: XBridge C18 3.5um, 2.1x50mm, Waters
Retention time: 2.046 min
Base peak: 266.1245
Precursor m/z: 266.1248
Precursor type: [M+H]+
m/z	relative intensity	assigned
53.0386	9	C4H5+
57.0334	11	C3H5O+
57.0447	24	C2H5N2+
69.0335	30	C4H5O+
71.0491	32	C4H7O+
73.0284	54	C3H5O2+
81.0334	13	C5H5O+
94.04	65	C4H4N3+
96.0555	8	C4H6N3+
99.044	20	C5H7O2+
109.0512	4	C4H5N4+
117.0545	10	C5H9O3+
119.0352	3	C5H3N4+
121.0506	3	C5H5N4+
123.0664	37	C5H7N4+
135.0541	8	C5H5N5+
148.0617	12	C6H6N5+
150.0774	999	C6H8N5+
