Mass spectrum: EQ; LC-ESI-QFT; MS2; CE: 90%; R=17500; [M+H]+
Name: EQ
Name: Ethoxyquin
Name: 6-ethoxy-2,2,4-trimethyl-1H-quinoline
Formula: C14H19NO
Exact mass: 217.1467
SMILES: CCOC1=CC2=C(C=C1)NC(C=C2C)(C)C
InChI: InChI=1S/C14H19NO/c1-5-16-11-6-7-13-12(8-11)10(2)9-14(3,4)15-13/h6-9,15H,5H2,1-4H3
Instrument: Exploris 240 Orbitrap Thermo Scientific
Instrument type: LC-ESI-QFT
Ms type: MS2
Ion mode: POSITIVE
Ionization: ESI
Fragmentation mode: HCD
Collision energy: 90 % (nominal)
Resolution: 17500
Column name: XBridge C18 3.5um, 2.1x50mm, Waters
Retention time: 5.669 min
Base peak: 218.1536
Precursor m/z: 218.1539
Precursor type: [M+H]+
m/z	relative intensity	assigned
57.0699	61	C4H9+
79.0544	144	C6H7+
91.054	76	C7H7+
103.0546	60	C8H7+
106.0651	226	C7H8N+
107.0491	147	C7H7O+
118.0654	112	C8H8N+
120.0808	161	C8H10N+
122.06	207	C7H8NO+
130.0651	71	C9H8N+
131.0731	62	C9H9N+
132.0806	81	C9H10N+
133.0523	393	C8H7NO+
134.0601	460	C8H8NO+
144.081	67	C10H10N+
146.06	527	C9H8NO+
146.0965	254	C10H12N+
147.068	276	C9H9NO+
148.0756	415	C9H10NO+
158.0724	80	C11H10O+
158.0961	167	C11H12N+
159.0676	79	C10H9NO+
160.0757	907	C10H10NO+
161.0834	115	C10H11NO+
162.0915	71	C10H12NO+
174.0914	999	C11H12NO+
175.0994	77	C11H13NO+
188.107	373	C12H14NO+
190.1232	75	C12H16NO+
202.1225	288	C13H16NO+
