Mass spectrum: 3',4,4',5,7-Pentahydroxyflavan; LC-ESI-QFT; MS2; CE: 60%; R=17500; [M+H]+
Name: 3',4,4',5,7-Pentahydroxyflavan
Name: 2-(3,4-dihydroxyphenyl)-3,4-dihydro-2H-chromene-4,5,7-triol
Formula: C15H14O6
Exact mass: 290.0790382
SMILES: C1C(C2=C(C=C(C=C2OC1C3=CC(=C(C=C3)O)O)O)O)O
InChI: InChI=1S/C15H14O6/c16-8-4-11(19)15-12(20)6-13(21-14(15)5-8)7-1-2-9(17)10(18)3-7/h1-5,12-13,16-20H,6H2
Instrument: Exploris 240 Orbitrap Thermo Scientific
Instrument type: LC-ESI-QFT
Ms type: MS2
Ion mode: POSITIVE
Ionization: ESI
Fragmentation mode: HCD
Collision energy: 60 % (nominal)
Resolution: 17500
Column name: XBridge C18 3.5um, 2.1x50mm, Waters
Retention time: 2.891 min
Base peak: 291.0861
Precursor m/z: 291.0863
Precursor type: [M+H]+
m/z	relative intensity	assigned
55.0178	34	C3H3O+
65.0384	12	C5H5+
67.0542	30	C5H7+
68.9971	25	C3HO2+
77.0385	7	C6H5+
83.0489	16	C5H7O+
85.0282	5	C4H5O2+
91.054	14	C7H7+
93.0334	28	C6H5O+
95.0491	47	C6H7O+
97.0282	8	C5H5O2+
105.0698	7	C8H9+
111.044	37	C6H7O2+
115.0541	13	C9H7+
119.0491	93	C8H7O+
121.0286	7	C7H5O2+
123.044	780	C7H7O2+
127.0387	17	C6H7O3+
133.0647	21	C9H9O+
135.0441	11	C8H7O2+
137.0239	22	C7H5O3+
137.0596	14	C8H9O2+
139.0389	999	C7H7O3+
143.0491	47	C10H7O+
147.0439	274	C9H7O2+
151.0393	14	C8H7O3+
151.0752	10	C9H11O2+
153.0548	8	C8H9O3+
159.0441	10	C10H7O2+
161.0596	163	C10H9O2+
163.0392	18	C9H7O3+
165.0548	35	C9H9O3+
177.0549	22	C10H9O3+
179.0705	36	C10H11O3+
189.054	36	C11H9O3+
207.0657	24	C11H11O4+
