Mass spectrum: Homoanatoxin-a; LC-ESI-QFT; MS2; CE: 180%; R=17500; [M+H]+
Name: Homoanatoxin-a
Name: 1-[(1R,6R)-9-azabicyclo[4.2.1]non-2-en-2-yl]propan-1-one
Formula: C11H17NO
Exact mass: 179.1310142
SMILES: CCC(=O)C1=CCC[C@@H]2CC[C@H]1N2
InChI: InChI=1S/C11H17NO/c1-2-11(13)9-5-3-4-8-6-7-10(9)12-8/h5,8,10,12H,2-4,6-7H2,1H3/t8-,10-/m1/s1
Instrument: Exploris 240 Orbitrap Thermo Scientific
Instrument type: LC-ESI-QFT
Ms type: MS2
Ion mode: POSITIVE
Ionization: ESI
Fragmentation mode: HCD
Collision energy: 180 % (nominal)
Resolution: 17500
Column name: XBridge C18 3.5um, 2.1x50mm, Waters
Retention time: 2.548 min
Base peak: 180.1381
Precursor m/z: 180.1383
Precursor type: [M+H]+
m/z	relative intensity	assigned
43.0178	317	C2H3O+
51.023	662	C4H3+
53.0386	587	C4H5+
55.0543	341	C4H7+
56.0496	315	C3H6N+
57.0336	452	C3H5O+
65.0387	999	C5H5+
67.0418	462	C4H5N+
67.0542	271	C5H7+
68.0495	402	C4H6N+
77.0385	896	C6H5+
79.0543	555	C6H7+
80.0499	192	C5H6N+
91.0542	848	C7H7+
95.0492	372	C6H7O+
115.0542	343	C9H7+
