Mass spectrum: 2,6-Di-Tert-Butyl-4-Nitrophenol; LC-ESI-QFT; MS2; CE: 120%; R=17500; [M+H]+
Name: 2,6-Di-Tert-Butyl-4-Nitrophenol
Name: 2,6-ditert-butyl-4-nitrophenol
Formula: C14H21NO3
Exact mass: 251.1521435
SMILES: CC(C)(C)C1=CC(=CC(=C1O)C(C)(C)C)[N+](=O)[O-]
InChI: InChI=1S/C14H21NO3/c1-13(2,3)10-7-9(15(17)18)8-11(12(10)16)14(4,5)6/h7-8,16H,1-6H3
Instrument: Exploris 240 Orbitrap Thermo Scientific
Instrument type: LC-ESI-QFT
Ms type: MS2
Ion mode: POSITIVE
Ionization: ESI
Fragmentation mode: HCD
Collision energy: 120 % (nominal)
Resolution: 17500
Column name: XBridge C18 3.5um, 2.1x50mm, Waters
Retention time: 13.507 min
Base peak: 252.1592
Precursor m/z: 252.1594
Precursor type: [M+H]+
m/z	relative intensity	assigned
53.0387	72	C4H5+
55.0542	131	C4H7+
57.0699	224	C4H9+
65.0385	99	C5H5+
67.0543	40	C5H7+
77.0386	193	C6H5+
79.0542	344	C6H7+
91.0543	999	C7H7+
93.0698	169	C7H9+
95.0491	91	C6H7O+
103.0541	120	C8H7+
104.0618	31	C8H8+
105.0698	356	C8H9+
106.0776	23	C8H10+
107.0494	52	C7H7O+
107.0856	40	C8H11+
115.0542	193	C9H7+
116.0619	62	C9H8+
117.07	152	C9H9+
119.0491	71	C8H7O+
119.0855	288	C9H11+
121.0648	37	C8H9O+
128.0621	61	C10H8+
129.0699	84	C10H9+
131.0859	53	C10H11+
133.065	60	C9H9O+
135.0802	29	C9H11O+
142.0782	53	C11H10+
145.065	66	C10H9O+
147.0805	122	C10H11O+
149.0961	45	C10H13O+
160.0877	101	C11H12O+
175.1122	241	C12H15O+
190.1358	31	C13H18O+
