Mass spectrum: UV-PS; LC-ESI-QFT; MS2; CE: 120%; R=17500; [M+H]+
Name: UV-PS
Name: 2-(benzotriazol-2-yl)-4-tert-butylphenol
Formula: C16H17N3O
Exact mass: 267.1371622
SMILES: CC(C)(C)C1=CC(=C(C=C1)O)N2N=C3C=CC=CC3=N2
InChI: InChI=1S/C16H17N3O/c1-16(2,3)11-8-9-15(20)14(10-11)19-17-12-6-4-5-7-13(12)18-19/h4-10,20H,1-3H3
Instrument: Exploris 240 Orbitrap Thermo Scientific
Instrument type: LC-ESI-QFT
Ms type: MS2
Ion mode: POSITIVE
Ionization: ESI
Fragmentation mode: HCD
Collision energy: 120 % (nominal)
Resolution: 17500
Column name: XBridge C18 3.5um, 2.1x50mm, Waters
Retention time: 15.802 min
Base peak: 268.1445
Precursor m/z: 268.1444
Precursor type: [M+H]+
m/z	relative intensity	assigned
51.0229	22	C4H3+
53.0386	51	C4H5+
57.0699	288	C4H9+
65.0386	999	C5H5+
77.0386	85	C6H5+
78.0341	27	C5H4N+
79.0419	57	C5H5N+
79.0544	111	C6H7+
80.0495	173	C5H6N+
91.0542	281	C7H7+
92.0495	323	C6H6N+
94.0415	38	C6H6O+
95.0492	43	C6H7O+
103.0544	64	C8H7+
105.0448	151	C6H5N2+
105.0699	105	C8H9+
106.0527	36	C6H6N2+
107.0494	36	C7H7O+
107.0602	28	C6H7N2+
115.0546	53	C9H7+
119.0493	32	C8H7O+
120.056	160	C6H6N3+
128.0619	83	C10H8+
133.0651	73	C9H9O+
133.0762	33	C8H9N2+
139.0544	72	C11H7+
154.0655	64	C11H8N+
167.0735	64	C12H9N+
180.0809	48	C13H10N+
183.0671	22	C12H9NO+
