Mass spectrum: THBP; LC-ESI-QFT; MS2; CE: 90%; R=17500; [M-H]-
Name: THBP
Name: 2,4,5-Trihydroxybutyrophenone
Name: 1-(2,4,5-trihydroxyphenyl)butan-1-one
Formula: C10H12O4
Exact mass: 196.0736
SMILES: CCCC(=O)C1=CC(=C(C=C1O)O)O
InChI: InChI=1S/C10H12O4/c1-2-3-7(11)6-4-9(13)10(14)5-8(6)12/h4-5,12-14H,2-3H2,1H3
Instrument: Exploris 240 Orbitrap Thermo Scientific
Instrument type: LC-ESI-QFT
Ms type: MS2
Ion mode: NEGATIVE
Ionization: ESI
Fragmentation mode: HCD
Collision energy: 90 % (nominal)
Resolution: 17500
Column name: XBridge C18 3.5um, 2.1x50mm, Waters
Retention time: 5.513 min
Base peak: 195.0661
Precursor m/z: 195.0663
Precursor type: [M-H]-
m/z	relative intensity	assigned
51.0241	51	C4H3-
55.0189	65	C3H3O-
67.0191	69	C4H3O-
69.0345	318	C4H5O-
79.0191	66	C5H3O-
83.0137	75	C4H3O2-
95.0138	789	C5H3O2-
97.0294	172	C5H5O2-
97.0658	102	C6H9O-
107.0138	589	C6H3O2-
123.0087	802	C6H3O3-
124.0166	999	C6H4O3-
125.0244	440	C6H5O3-
151.0036	489	C7H3O4-
152.0114	189	C7H4O4-
166.0272	260	C8H6O4-
