Mass spectrum: AO-CA; LC-ESI-QFT; MS2; CE: 45%; R=17500; [M-H]-
Name: AO-CA
Name: 4,4`,4``-(1-Methylpropanyl-3-ylidene)tris(6-tert-butyl-m-cresol)
Name: 4-[4,4-bis(5-tert-butyl-4-hydroxy-2-methylphenyl)butan-2-yl]-2-tert-butyl-5-methylphenol
Formula: C37H52O3
Exact mass: 544.391645524
SMILES: CC1=CC(=C(C=C1C(C)CC(C2=CC(=C(C=C2C)O)C(C)(C)C)C3=CC(=C(C=C3C)O)C(C)(C)C)C(C)(C)C)O
InChI: InChI=1S/C37H52O3/c1-21(25-18-29(35(5,6)7)32(38)15-22(25)2)14-28(26-19-30(36(8,9)10)33(39)16-23(26)3)27-20-31(37(11,12)13)34(40)17-24(27)4/h15-21,28,38-40H,14H2,1-13H3
Instrument: Exploris 240 Orbitrap Thermo Scientific
Instrument type: LC-ESI-QFT
Ms type: MS2
Ion mode: NEGATIVE
Ionization: ESI
Fragmentation mode: HCD
Collision energy: 45 % (nominal)
Resolution: 17500
Column name: XBridge C18 3.5um, 2.1x50mm, Waters
Retention time: 17.229 min
Base peak: 589.3899
Precursor m/z: 543.3844
Precursor type: [M-H]-
m/z	relative intensity	assigned
163.1128	110	C11H15O-
189.1284	90	C13H17O-
281.1547	218	C19H21O2-
282.1629	14	C19H22O2-
295.1713	3	C20H23O2-
307.171	3	C21H23O2-
321.1862	1	C22H25O2-
323.2007	13	C22H27O2-
337.2174	226	C23H29O2-
338.2251	254	C23H30O2-
339.2329	3	C23H31O2-
431.2586	4	C29H35O3-
487.3219	144	C33H43O3-
543.3844	999	C37H51O3-
