Mass spectrum: DPPD; LC-ESI-QFT; MS2; CE: 60%; R=17500; [M+H]+
Name: DPPD
Name: N,N`-Diphenyl-p-phenylenediamine
Name: 1-N,4-N-diphenylbenzene-1,4-diamine
Formula: C18H16N2
Exact mass: 260.1313
SMILES: C1=CC=C(C=C1)NC2=CC=C(C=C2)NC3=CC=CC=C3
InChI: InChI=1S/C18H16N2/c1-3-7-15(8-4-1)19-17-11-13-18(14-12-17)20-16-9-5-2-6-10-16/h1-14,19-20H
Instrument: Exploris 240 Orbitrap Thermo Scientific
Instrument type: LC-ESI-QFT
Ms type: MS2
Ion mode: POSITIVE
Ionization: ESI
Fragmentation mode: HCD
Collision energy: 60 % (nominal)
Resolution: 17500
Column name: XBridge C18 3.5um, 2.1x50mm, Waters
Retention time: 11.346 min
Base peak: 261.1382
Precursor m/z: 261.1386
Precursor type: [M+H]+
m/z	relative intensity	assigned
169.0885	69	C12H11N+
183.0916	112	C12H11N2+
184.0994	999	C12H12N2+
202.0776	83	C16H10+
