Mass spectrum: 2,2'-Dihydroxy-4,4'-dimethoxybenzophenone; LC-ESI-QFT; MS2; CE: 150%; R=17500; [M+H]+
Name: 2,2'-Dihydroxy-4,4'-dimethoxybenzophenone
Name: Benzophenone-6
Name: bis(2-hydroxy-4-methoxyphenyl)methanone
Formula: C15H14O5
Exact mass: 274.0841235
SMILES: COC1=CC(=C(C=C1)C(=O)C2=C(C=C(C=C2)OC)O)O
InChI: InChI=1S/C15H14O5/c1-19-9-3-5-11(13(16)7-9)15(18)12-6-4-10(20-2)8-14(12)17/h3-8,16-17H,1-2H3
Instrument: Exploris 240 Orbitrap Thermo Scientific
Instrument type: LC-ESI-QFT
Ms type: MS2
Ion mode: POSITIVE
Ionization: ESI
Fragmentation mode: HCD
Collision energy: 150 % (nominal)
Resolution: 17500
Column name: XBridge C18 3.5um, 2.1x50mm, Waters
Retention time: 10.015 min
Base peak: 275.0912
Precursor m/z: 275.0914
Precursor type: [M+H]+
m/z	relative intensity	assigned
50.0151	158	C4H2+
51.0229	182	C4H3+
52.0307	999	C4H4+
53.0022	45	C3HO+
55.0178	121	C3H3O+
63.023	39	C5H3+
65.0386	415	C5H5+
67.0541	68	C5H7+
68.9971	163	C3HO2+
77.0387	24	C6H5+
79.0179	37	C5H3O+
80.0256	288	C5H4O+
89.0384	16	C7H5+
95.0491	180	C6H7O+
98.0362	18	C5H6O2+
108.0205	301	C6H4O2+
115.0546	64	C9H7+
