Mass spectrum: UV-PS; LC-ESI-QFT; MS2; CE: 45%; R=17500; [M+H]+
Name: UV-PS
Name: 2-(benzotriazol-2-yl)-4-tert-butylphenol
Formula: C16H17N3O
Exact mass: 267.1371622
SMILES: CC(C)(C)C1=CC(=C(C=C1)O)N2N=C3C=CC=CC3=N2
InChI: InChI=1S/C16H17N3O/c1-16(2,3)11-8-9-15(20)14(10-11)19-17-12-6-4-5-7-13(12)18-19/h4-10,20H,1-3H3
Instrument: Exploris 240 Orbitrap Thermo Scientific
Instrument type: LC-ESI-QFT
Ms type: MS2
Ion mode: POSITIVE
Ionization: ESI
Fragmentation mode: HCD
Collision energy: 45 % (nominal)
Resolution: 17500
Column name: XBridge C18 3.5um, 2.1x50mm, Waters
Retention time: 15.802 min
Base peak: 268.1445
Precursor m/z: 268.1444
Precursor type: [M+H]+
m/z	relative intensity	assigned
57.0699	440	C4H9+
93.0333	5	C6H5O+
109.0646	6	C7H9O+
120.0558	10	C6H6N3+
121.0647	6	C8H9O+
156.081	5	C11H10N+
166.0655	11	C12H8N+
183.0677	5	C12H9NO+
184.0758	11	C12H10NO+
212.082	849	C12H10N3O+
268.1446	999	C16H18N3O+
