Mass spectrum: 2'-deoxy-8-oxoguanosine; LC-ESI-QFT; MS2; CE: 75%; R=17500; [M+H]+
Name: 2'-deoxy-8-oxoguanosine
Name: CID 3964517
Name: 2-amino-9-[4-hydroxy-5-(hydroxymethyl)oxolan-2-yl]-3,7-dihydropurine-6,8-dione
Formula: C10H13N5O5
Exact mass: 283.0916685
SMILES: C1C(C(OC1N2C3=C(C(=O)NC(=N3)N)NC2=O)CO)O
InChI: InChI=1S/C10H13N5O5/c11-9-13-7-6(8(18)14-9)12-10(19)15(7)5-1-3(17)4(2-16)20-5/h3-5,16-17H,1-2H2,(H,12,19)(H3,11,13,14,18)
Instrument: Exploris 240 Orbitrap Thermo Scientific
Instrument type: LC-ESI-QFT
Ms type: MS2
Ion mode: POSITIVE
Ionization: ESI
Fragmentation mode: HCD
Collision energy: 75 % (nominal)
Resolution: 17500
Column name: XBridge C18 3.5um, 2.1x50mm, Waters
Retention time: 1.975 min
Base peak: 284.099
Precursor m/z: 284.0989
Precursor type: [M+H]+
m/z	relative intensity	assigned
53.0387	41	C4H5+
55.0291	63	C2H3N2+
57.0335	39	C3H5O+
69.0086	33	C2HN2O+
69.0335	267	C4H5O+
70.04	33	C2H4N3+
71.0492	71	C4H7O+
73.0284	132	C3H5O2+
81.0335	44	C5H5O+
98.035	63	C3H4N3O+
99.044	76	C5H7O2+
112.0618	358	C3H6N5+
113.046	13	C3H5N4O+
117.0546	31	C5H9O3+
123.0302	196	C4H3N4O+
125.046	36	C4H5N4O+
126.0297	72	C4H4N3O2+
140.0568	999	C4H6N5O+
150.0412	23	C5H4N5O+
151.0251	230	C5H3N4O2+
168.0517	966	C5H6N5O2+
