Mass spectrum: Ellagic Acid; LC-ESI-QFT; MS2; CE: 90%; R=17500; [M-H]-
Name: Ellagic Acid
Name: 6,7,13,14-tetrahydroxy-2,9-dioxatetracyclo[6.6.2.04,16.011,15]hexadeca-1(15),4,6,8(16),11,13-hexaene-3,10-dione
Formula: C14H6O8
Exact mass: 302.006267152
SMILES: C1=C2C3=C(C(=C1O)O)OC(=O)C4=CC(=C(C(=C43)OC2=O)O)O
InChI: InChI=1S/C14H6O8/c15-5-1-3-7-8-4(14(20)22-11(7)9(5)17)2-6(16)10(18)12(8)21-13(3)19/h1-2,15-18H
Instrument: Exploris 240 Orbitrap Thermo Scientific
Instrument type: LC-ESI-QFT
Ms type: MS2
Ion mode: NEGATIVE
Ionization: ESI
Fragmentation mode: HCD
Collision energy: 90 % (nominal)
Resolution: 17500
Column name: XBridge C18 3.5um, 2.1x50mm, Waters
Retention time: 4.930 min
Base peak: 300.9989
Precursor m/z: 300.999
Precursor type: [M-H]-
m/z	relative intensity	assigned
65.0033	126	C4HO-
77.0397	41	C6H5-
87.024	46	C7H3-
89.0397	183	C7H5-
99.0242	79	C8H3-
101.04	126	C8H5-
103.0192	39	C7H3O-
105.0347	98	C7H5O-
115.0191	98	C8H3O-
116.027	55	C8H4O-
117.0346	680	C8H5O-
119.0142	38	C7H3O2-
127.0192	46	C9H3O-
129.0345	223	C9H5O-
132.0218	178	C8H4O2-
133.0296	348	C8H5O2-
143.0136	155	C9H3O2-
144.0217	208	C9H4O2-
145.0295	999	C9H5O2-
155.0142	54	C10H3O2-
156.022	102	C10H4O2-
157.0296	127	C10H5O2-
160.0165	251	C9H4O3-
161.0242	321	C9H5O3-
171.0088	181	C10H3O3-
172.0167	361	C10H4O3-
173.0244	307	C10H5O3-
184.0171	111	C11H4O3-
185.0241	124	C11H5O3-
188.0121	90	C10H4O4-
189.0194	178	C10H5O4-
199.0034	240	C11H3O4-
200.0114	480	C11H4O4-
201.0196	137	C11H5O4-
212.0119	36	C12H4O4-
216.0064	221	C11H4O5-
217.0146	88	C11H5O5-
226.9985	79	C12H3O5-
228.0069	154	C12H4O5-
229.0153	45	C12H5O5-
245.0093	75	C12H5O6-
254.9941	55	C13H3O6-
270.9889	55	C13H3O7-
283.9961	159	C14H4O7-
