Mass spectrum: AO-TBM6; LC-ESI-QFT; MS2; CE: 120%; R=17500; [M-H]-
Name: AO-TBM6
Name: Santonox
Name: 2-tert-butyl-4-(5-tert-butyl-4-hydroxy-2-methylphenyl)sulfanyl-5-methylphenol
Formula: C22H30O2S
Exact mass: 358.1966512
SMILES: CC1=CC(=C(C=C1SC2=CC(=C(C=C2C)O)C(C)(C)C)C(C)(C)C)O
InChI: InChI=1S/C22H30O2S/c1-13-9-17(23)15(21(3,4)5)11-19(13)25-20-12-16(22(6,7)8)18(24)10-14(20)2/h9-12,23-24H,1-8H3
Instrument: Exploris 240 Orbitrap Thermo Scientific
Instrument type: LC-ESI-QFT
Ms type: MS2
Ion mode: NEGATIVE
Ionization: ESI
Fragmentation mode: HCD
Collision energy: 120 % (nominal)
Resolution: 17500
Column name: XBridge C18 3.5um, 2.1x50mm, Waters
Retention time: 14.763 min
Base peak: 357.1894
Precursor m/z: 357.1894
Precursor type: [M-H]-
m/z	relative intensity	assigned
107.0503	11	C7H7O-
109.0117	10	C6H5S-
138.0142	44	C7H6OS-
147.0811	27	C10H11O-
151.0224	102	C8H7OS-
163.0229	41	C9H7OS-
164.0302	190	C9H8OS-
165.0379	21	C9H9OS-
177.0382	126	C10H9OS-
178.0459	999	C10H10OS-
179.0537	650	C10H11OS-
194.077	6	C11H14OS-
