Mass spectrum: Curcumin; LC-ESI-QFT; MS2; CE: 120%; R=17500; [M+H]+
Name: Curcumin
Name: 1,7-Bis(4-hydroxy-3-methoxyphenyl)-1,6-heptadiene-3,5-dione
Name: 1,7-bis(4-hydroxy-3-methoxyphenyl)hepta-1,6-diene-3,5-dione
Formula: C21H20O6
Exact mass: 368.1259884
SMILES: COC1=C(C=CC(=C1)C=CC(=O)CC(=O)C=CC2=CC(=C(C=C2)O)OC)O
InChI: InChI=1S/C21H20O6/c1-26-20-11-14(5-9-18(20)24)3-7-16(22)13-17(23)8-4-15-6-10-19(25)21(12-15)27-2/h3-12,24-25H,13H2,1-2H3
Instrument: Exploris 240 Orbitrap Thermo Scientific
Instrument type: LC-ESI-QFT
Ms type: MS2
Ion mode: POSITIVE
Ionization: ESI
Fragmentation mode: HCD
Collision energy: 120 % (nominal)
Resolution: 17500
Column name: XBridge C18 3.5um, 2.1x50mm, Waters
Retention time: 9.566 min
Base peak: 369.1332
Precursor m/z: 369.1333
Precursor type: [M+H]+
m/z	relative intensity	assigned
51.023	10	C4H3+
52.0307	11	C4H4+
53.0384	8	C4H5+
55.0178	6	C3H3O+
63.0229	129	C5H3+
65.0385	24	C5H5+
66.0464	9	C5H6+
68.9971	24	C3HO2+
77.0387	45	C6H5+
78.0464	211	C6H6+
79.0543	8	C6H7+
89.0385	999	C7H5+
90.0464	11	C7H6+
91.0541	43	C7H7+
94.0413	36	C6H6O+
95.0492	17	C6H7O+
102.0461	7	C8H6+
103.0542	26	C8H7+
105.0335	52	C7H5O+
106.0412	46	C7H6O+
107.0492	4	C7H7O+
115.0542	11	C9H7+
117.0335	174	C8H5O+
118.0413	35	C8H6O+
122.0361	5	C7H6O2+
128.0622	14	C10H8+
131.0491	7	C9H7O+
134.0362	64	C8H6O2+
136.0517	11	C8H8O2+
139.0543	7	C11H7+
145.0288	8	C9H5O2+
146.0359	10	C9H6O2+
152.0624	10	C12H8+
153.0696	23	C12H9+
164.0615	5	C13H8+
165.0697	23	C13H9+
181.0649	14	C13H9O+
