Mass spectrum: DPPD; LC-ESI-QFT; MS2; CE: 150%; R=17500; [M+H]+
Name: DPPD
Name: N,N`-Diphenyl-p-phenylenediamine
Name: 1-N,4-N-diphenylbenzene-1,4-diamine
Formula: C18H16N2
Exact mass: 260.1313
SMILES: C1=CC=C(C=C1)NC2=CC=C(C=C2)NC3=CC=CC=C3
InChI: InChI=1S/C18H16N2/c1-3-7-15(8-4-1)19-17-11-13-18(14-12-17)20-16-9-5-2-6-10-16/h1-14,19-20H
Instrument: Exploris 240 Orbitrap Thermo Scientific
Instrument type: LC-ESI-QFT
Ms type: MS2
Ion mode: POSITIVE
Ionization: ESI
Fragmentation mode: HCD
Collision energy: 150 % (nominal)
Resolution: 17500
Column name: XBridge C18 3.5um, 2.1x50mm, Waters
Retention time: 11.346 min
Base peak: 261.1382
Precursor m/z: 261.1386
Precursor type: [M+H]+
m/z	relative intensity	assigned
51.0228	56	C4H3+
53.0386	114	C4H5+
65.0386	70	C5H5+
66.0464	95	C5H6+
80.0495	999	C5H6N+
93.0574	74	C6H7N+
105.0449	55	C6H5N2+
107.0604	731	C6H7N2+
128.0623	67	C10H8+
139.0542	73	C11H7+
166.0651	97	C12H8N+
167.0728	143	C12H9N+
202.0778	346	C16H10+
