Mass spectrum: Isoliquiritigenin; LC-ESI-QFT; MS2; CE: 150%; R=17500; [M+H]+
Name: Isoliquiritigenin
Name: 1-(2,4-dihydroxyphenyl)-3-(4-hydroxyphenyl)prop-2-en-1-one
Formula: C15H12O4
Exact mass: 256.0735589
SMILES: C1=CC(=CC=C1C=CC(=O)C2=C(C=C(C=C2)O)O)O
InChI: InChI=1S/C15H12O4/c16-11-4-1-10(2-5-11)3-8-14(18)13-7-6-12(17)9-15(13)19/h1-9,16-17,19H
Instrument: Exploris 240 Orbitrap Thermo Scientific
Instrument type: LC-ESI-QFT
Ms type: MS2
Ion mode: POSITIVE
Ionization: ESI
Fragmentation mode: HCD
Collision energy: 150 % (nominal)
Resolution: 17500
Column name: XBridge C18 3.5um, 2.1x50mm, Waters
Retention time: 7.266 min
Base peak: 257.0806
Precursor m/z: 257.0808
Precursor type: [M+H]+
m/z	relative intensity	assigned
51.0229	147	C4H3+
53.0023	45	C3HO+
53.0385	782	C4H5+
55.0178	58	C3H3O+
63.023	64	C5H3+
65.0385	999	C5H5+
68.9971	754	C3HO2+
75.023	50	C6H3+
77.0385	129	C6H5+
81.0334	977	C5H5O+
89.0387	54	C7H5+
91.0542	536	C7H7+
95.049	45	C6H7O+
115.0546	69	C9H7+
137.0229	40	C7H5O3+
139.0541	37	C11H7+
152.0624	61	C12H8+
165.0705	33	C13H9+
