Mass spectrum: Ellagic Acid; LC-ESI-QFT; MS2; CE: 150%; R=17500; [M-H]-
Name: Ellagic Acid
Name: 6,7,13,14-tetrahydroxy-2,9-dioxatetracyclo[6.6.2.04,16.011,15]hexadeca-1(15),4,6,8(16),11,13-hexaene-3,10-dione
Formula: C14H6O8
Exact mass: 302.006267152
SMILES: C1=C2C3=C(C(=C1O)O)OC(=O)C4=CC(=C(C(=C43)OC2=O)O)O
InChI: InChI=1S/C14H6O8/c15-5-1-3-7-8-4(14(20)22-11(7)9(5)17)2-6(16)10(18)12(8)21-13(3)19/h1-2,15-18H
Instrument: Exploris 240 Orbitrap Thermo Scientific
Instrument type: LC-ESI-QFT
Ms type: MS2
Ion mode: NEGATIVE
Ionization: ESI
Fragmentation mode: HCD
Collision energy: 150 % (nominal)
Resolution: 17500
Column name: XBridge C18 3.5um, 2.1x50mm, Waters
Retention time: 4.930 min
Base peak: 300.9989
Precursor m/z: 300.999
Precursor type: [M-H]-
m/z	relative intensity	assigned
51.0241	165	C4H3-
63.0241	178	C5H3-
65.0033	999	C4HO-
73.0083	242	C6H-
75.0238	248	C6H3-
77.0397	248	C6H5-
87.0238	260	C7H3-
88.0319	81	C7H4-
89.0032	205	C6HO-
89.0397	456	C7H5-
91.019	191	C6H3O-
99.024	130	C8H3-
103.0191	137	C7H3O-
104.0269	108	C7H4O-
115.0189	249	C8H3O-
116.0268	136	C8H4O-
117.0348	199	C8H5O-
132.0219	173	C8H4O2-
133.0294	115	C8H5O2-
143.014	87	C9H3O2-
