Mass spectrum: Ellagic Acid; LC-ESI-QFT; MS2; CE: 120%; R=17500; [M+H]+
Name: Ellagic Acid
Name: 6,7,13,14-tetrahydroxy-2,9-dioxatetracyclo[6.6.2.04,16.011,15]hexadeca-1(15),4,6,8(16),11,13-hexaene-3,10-dione
Formula: C14H6O8
Exact mass: 302.0062672
SMILES: C1=C2C3=C(C(=C1O)O)OC(=O)C4=CC(=C(C(=C43)OC2=O)O)O
InChI: InChI=1S/C14H6O8/c15-5-1-3-7-8-4(14(20)22-11(7)9(5)17)2-6(16)10(18)12(8)21-13(3)19/h1-2,15-18H
Instrument: Exploris 240 Orbitrap Thermo Scientific
Instrument type: LC-ESI-QFT
Ms type: MS2
Ion mode: POSITIVE
Ionization: ESI
Fragmentation mode: HCD
Collision energy: 120 % (nominal)
Resolution: 17500
Column name: XBridge C18 3.5um, 2.1x50mm, Waters
Retention time: 4.941 min
Base peak: 132.9582
Precursor m/z: 303.0135
Precursor type: [M+H]+
m/z	relative intensity	assigned
51.023	31	C4H3+
53.0022	29	C3HO+
53.0384	24	C4H5+
55.0179	8	C3H3O+
63.0229	303	C5H3+
65.0386	97	C5H5+
68.9972	35	C3HO2+
75.0229	159	C6H3+
77.0022	57	C5HO+
77.0386	84	C6H5+
79.018	7	C5H3O+
79.0542	46	C6H7+
87.0229	26	C7H3+
89.0385	999	C7H5+
91.0541	78	C7H7+
95.0491	19	C6H7O+
99.023	98	C8H3+
101.0386	78	C8H5+
103.0178	83	C7H3O+
105.0337	19	C7H5O+
107.049	17	C7H7O+
117.0335	191	C8H5O+
119.0492	12	C8H7O+
127.0179	129	C9H3O+
131.0126	11	C8H3O2+
145.0285	203	C9H5O2+
147.0442	23	C9H7O2+
155.0129	37	C10H3O2+
157.0287	13	C10H5O2+
163.0392	19	C9H7O3+
173.0231	50	C10H5O3+
183.0079	37	C11H3O3+
201.0188	26	C11H5O4+
