Mass spectrum: UV9; LC-ESI-QFT; MS2; CE: 90%; R=17500; [M+H]+
Name: UV9
Name: 2-(benzotriazol-2-yl)-4-methyl-6-prop-2-enylphenol
Formula: C16H15N3O
Exact mass: 265.1215121
SMILES: CC1=CC(=C(C(=C1)N2N=C3C=CC=CC3=N2)O)CC=C
InChI: InChI=1S/C16H15N3O/c1-3-6-12-9-11(2)10-15(16(12)20)19-17-13-7-4-5-8-14(13)18-19/h3-5,7-10,20H,1,6H2,2H3
Instrument: Exploris 240 Orbitrap Thermo Scientific
Instrument type: LC-ESI-QFT
Ms type: MS2
Ion mode: POSITIVE
Ionization: ESI
Fragmentation mode: HCD
Collision energy: 90 % (nominal)
Resolution: 17500
Column name: XBridge C18 3.5um, 2.1x50mm, Waters
Retention time: 16.910 min
Base peak: 266.1289
Precursor m/z: 266.1288
Precursor type: [M+H]+
m/z	relative intensity	assigned
53.0387	37	C4H5+
55.0181	14	C3H3O+
65.0386	368	C5H5+
77.039	39	C6H5+
78.0464	26	C6H6+
79.0543	128	C6H7+
91.0543	999	C7H7+
92.0495	150	C6H6N+
93.0574	34	C6H7N+
93.0697	64	C7H9+
95.0491	39	C6H7O+
103.0542	153	C8H7+
104.0621	113	C8H8+
105.045	56	C6H5N2+
105.0698	50	C8H9+
107.0492	26	C7H7O+
115.0543	170	C9H7+
117.0578	54	C8H7N+
117.0698	320	C9H9+
118.0652	21	C8H8N+
119.0855	260	C9H11+
120.0553	69	C6H6N3+
128.062	47	C10H8+
129.0703	20	C10H9+
130.0651	12	C9H8N+
131.0494	21	C9H7O+
132.0571	31	C9H8O+
132.0809	30	C9H10N+
133.0651	37	C9H9O+
145.0644	12	C10H9O+
154.0655	17	C11H8N+
160.0754	52	C10H10NO+
161.0836	24	C10H11NO+
167.0729	86	C12H9N+
168.081	27	C12H10N+
180.0811	56	C13H10N+
194.0972	29	C14H12N+
196.0759	24	C13H10NO+
238.0972	18	C14H12N3O+
