Mass spectrum: AO80; LC-ESI-QFT; MS2; CE: 45%; R=17500; [M+H]+
Name: AO80
Name: Sumilizer AG 80
Name: [2-[3-[1-[3-(3-tert-butyl-4-hydroxy-5-methylphenyl)propanoyloxy]-2-methylpropan-2-yl]-2,4,8,10-tetraoxaspiro[5.5]undecan-9-yl]-2-methylpropyl] 3-(3-tert-butyl-4-hydroxy-5-methylphenyl)propanoate
Name: 2,4,8,10-tetraoxaspiro[5.5]undecane-3,9-diylbis(2-methylpropane-2,1-diyl) bis(3-(3-(tert-butyl)-4-hydroxy-5-methylphenyl)propanoate))
Formula: C43H64O10
Exact mass: 740.4499
SMILES: CC1=CC(=CC(=C1O)C(C)(C)C)CCC(=O)OCC(C)(C)C2OCC3(CO2)COC(OC3)C(C)(C)COC(=O)CCC4=CC(=C(C(=C4)C)O)C(C)(C)C
InChI: InChI=1S/C43H64O10/c1-27-17-29(19-31(35(27)46)39(3,4)5)13-15-33(44)48-21-41(9,10)37-50-23-43(24-51-37)25-52-38(53-26-43)42(11,12)22-49-34(45)16-14-30-18-28(2)36(47)32(20-30)40(6,7)8/h17-20,37-38,46-47H,13-16,21-26H2,1-12H3
Instrument: Exploris 240 Orbitrap Thermo Scientific
Instrument type: LC-ESI-QFT
Ms type: MS2
Ion mode: POSITIVE
Ionization: ESI
Fragmentation mode: HCD
Collision energy: 45 % (nominal)
Resolution: 17500
Column name: XBridge C18 3.5um, 2.1x50mm, Waters
Retention time: 17.060 min
Base peak: 741.4572
Precursor m/z: 741.4572
Precursor type: [M+H]+
m/z	relative intensity	assigned
83.0491	310	C5H7O+
101.0596	283	C5H9O2+
121.0647	733	C8H9O+
135.0803	88	C9H11O+
153.0906	51	C9H13O2+
163.0753	999	C10H11O2+
173.0959	249	C12H13O+
177.1273	735	C12H17O+
202.0777	289	C16H10+
215.1069	124	C14H15O2+
219.138	533	C14H19O2+
231.1021	61	C14H15O3+
249.1487	74	C15H21O3+
