Mass spectrum: UV120; LC-ESI-QFT; MS2; CE: 180%; R=17500; [M+H]+
Name: UV120
Name: 2,4-Di-tert-butylphenyl 3',5'-di-tert-butyl-4'-hydroxybenzoate
Name: (2,4-ditert-butylphenyl) 3,5-ditert-butyl-4-hydroxybenzoate
Formula: C29H42O3
Exact mass: 438.3133952
SMILES: CC(C)(C)C1=CC(=C(C=C1)OC(=O)C2=CC(=C(C(=C2)C(C)(C)C)O)C(C)(C)C)C(C)(C)C
InChI: InChI=1S/C29H42O3/c1-26(2,3)19-13-14-23(20(17-19)27(4,5)6)32-25(31)18-15-21(28(7,8)9)24(30)22(16-18)29(10,11)12/h13-17,30H,1-12H3
Instrument: Exploris 240 Orbitrap Thermo Scientific
Instrument type: LC-ESI-QFT
Ms type: MS2
Ion mode: POSITIVE
Ionization: ESI
Fragmentation mode: HCD
Collision energy: 180 % (nominal)
Resolution: 17500
Column name: XBridge C18 3.5um, 2.1x50mm, Waters
Retention time: 18.102 min
Base peak: 439.3203
Precursor m/z: 439.3207
Precursor type: [M+H]+
m/z	relative intensity	assigned
51.023	172	C4H3+
53.0386	138	C4H5+
55.0543	26	C4H7+
65.0386	533	C5H5+
77.0386	480	C6H5+
78.0465	104	C6H6+
79.0542	220	C6H7+
89.0386	68	C7H5+
91.0543	999	C7H7+
94.0415	30	C6H6O+
95.0495	189	C6H7O+
103.0546	122	C8H7+
105.07	106	C8H9+
107.0491	31	C7H7O+
115.0543	572	C9H7+
116.0622	85	C9H8+
117.0701	102	C9H9+
128.0621	219	C10H8+
129.07	42	C10H9+
145.0649	63	C10H9O+
