Mass spectrum: 2-(3,4-Dihydroxyphenyl)Chroman-3,5,7-Triol; LC-ESI-QFT; MS2; CE: 75%; R=17500; [M-H]-
Name: 2-(3,4-Dihydroxyphenyl)Chroman-3,5,7-Triol
Name: 2-(3,4-dihydroxyphenyl)-3,4-dihydro-2H-1-benzopyran-3,5,7-triol
Name: 2-(3,4-dihydroxyphenyl)-3,4-dihydro-2H-chromene-3,5,7-triol
Formula: C15H14O6
Exact mass: 290.079038168
SMILES: C1C(C(OC2=CC(=CC(=C21)O)O)C3=CC(=C(C=C3)O)O)O
InChI: InChI=1S/C15H14O6/c16-8-4-11(18)9-6-13(20)15(21-14(9)5-8)7-1-2-10(17)12(19)3-7/h1-5,13,15-20H,6H2
Instrument: Exploris 240 Orbitrap Thermo Scientific
Instrument type: LC-ESI-QFT
Ms type: MS2
Ion mode: NEGATIVE
Ionization: ESI
Fragmentation mode: HCD
Collision energy: 75 % (nominal)
Resolution: 17500
Column name: XBridge C18 3.5um, 2.1x50mm, Waters
Retention time: 2.883 min
Base peak: 289.0716
Precursor m/z: 289.0718
Precursor type: [M-H]-
m/z	relative intensity	assigned
57.0346	250	C3H5O-
69.0347	105	C4H5O-
77.0398	19	C6H5-
80.0269	48	C5H4O-
81.0346	167	C5H5O-
83.0138	198	C4H3O2-
93.0346	125	C6H5O-
95.014	48	C5H3O2-
95.0501	210	C6H7O-
97.0294	280	C5H5O2-
105.0348	57	C7H5O-
108.0217	87	C6H4O2-
109.0294	943	C6H5O2-
117.0348	48	C8H5O-
121.0295	183	C7H5O2-
122.0373	187	C7H6O2-
123.0451	999	C7H7O2-
125.0243	231	C6H5O3-
135.0448	79	C8H7O2-
137.0243	197	C7H5O3-
138.0327	46	C7H6O3-
139.04	83	C7H7O3-
145.0296	94	C9H5O2-
146.0373	41	C9H6O2-
147.045	28	C9H7O2-
149.0244	83	C8H5O3-
150.0326	90	C8H6O3-
151.0399	141	C8H7O3-
159.0452	123	C10H7O2-
160.0532	55	C10H8O2-
161.0246	23	C9H5O3-
161.0609	44	C10H9O2-
162.0322	23	C9H6O3-
163.0399	36	C9H7O3-
164.0121	89	C8H4O4-
173.0608	64	C11H9O2-
175.0402	17	C10H7O3-
175.0763	70	C11H11O2-
177.0555	17	C10H9O3-
185.0614	23	C12H9O2-
187.0405	59	C11H7O3-
188.0475	42	C11H8O3-
201.0551	36	C12H9O3-
