Mass spectrum: Dioxybenzone; LC-ESI-QFT; MS2; CE: 150%; R=17500; [M+H]+
Name: Dioxybenzone
Name: 2,2'-Dihydroxy-4-methoxybenzophenone
Name: (2-hydroxy-4-methoxyphenyl)-(2-hydroxyphenyl)methanone
Formula: C14H12O4
Exact mass: 244.0735589
SMILES: COC1=CC(=C(C=C1)C(=O)C2=CC=CC=C2O)O
InChI: InChI=1S/C14H12O4/c1-18-9-6-7-11(13(16)8-9)14(17)10-4-2-3-5-12(10)15/h2-8,15-16H,1H3
Instrument: Exploris 240 Orbitrap Thermo Scientific
Instrument type: LC-ESI-QFT
Ms type: MS2
Ion mode: POSITIVE
Ionization: ESI
Fragmentation mode: HCD
Collision energy: 150 % (nominal)
Resolution: 17500
Column name: XBridge C18 3.5um, 2.1x50mm, Waters
Retention time: 8.791 min
Base peak: 245.0806
Precursor m/z: 245.0808
Precursor type: [M+H]+
m/z	relative intensity	assigned
50.0151	29	C4H2+
51.023	33	C4H3+
52.0307	190	C4H4+
53.0022	22	C3HO+
55.0179	30	C3H3O+
63.0229	8	C5H3+
65.0386	999	C5H5+
67.0541	12	C5H7+
68.997	32	C3HO2+
79.0176	6	C5H3O+
80.0256	47	C5H4O+
93.0334	23	C6H5O+
95.0491	35	C6H7O+
102.0463	24	C8H6+
108.0207	50	C6H4O2+
121.0284	20	C7H5O2+
128.0622	12	C10H8+
139.0542	7	C11H7+
