Mass spectrum: AO1035; LC-ESI-QFT; MS2; CE: 120%; R=17500; [M-H]-
Name: AO1035
Name: Irganox 1035
Name: 2-[2-[3-(3,5-ditert-butyl-4-hydroxyphenyl)propanoyloxy]ethylsulfanyl]ethyl 3-(3,5-ditert-butyl-4-hydroxyphenyl)propanoate
Formula: C38H58O6S
Exact mass: 642.3954
SMILES: CC(C)(C)C1=CC(=CC(=C1O)C(C)(C)C)CCC(=O)OCCSCCOC(=O)CCC2=CC(=C(C(=C2)C(C)(C)C)O)C(C)(C)C
InChI: InChI=1S/C38H58O6S/c1-35(2,3)27-21-25(22-28(33(27)41)36(4,5)6)13-15-31(39)43-17-19-45-20-18-44-32(40)16-14-26-23-29(37(7,8)9)34(42)30(24-26)38(10,11)12/h21-24,41-42H,13-20H2,1-12H3
Instrument: Exploris 240 Orbitrap Thermo Scientific
Instrument type: LC-ESI-QFT
Ms type: MS2
Ion mode: NEGATIVE
Ionization: ESI
Fragmentation mode: HCD
Collision energy: 120 % (nominal)
Resolution: 17500
Column name: XBridge C18 3.5um, 2.1x50mm, Waters
Retention time: 17.446 min
Base peak: 641.3881
Precursor m/z: 641.3881
Precursor type: [M-H]-
m/z	relative intensity	assigned
77.0068	94	C2H5OS-
83.0138	251	C4H3O2-
202.0787	999	C16H10-
