Mass spectrum: DG; LC-ESI-QFT; MS2; CE: 45%; R=17500; [M+H]+
Name: DG
Name: Dodecyl gallate
Name: dodecyl 3,4,5-trihydroxybenzoate
Formula: C19H30O5
Exact mass: 338.2093
SMILES: CCCCCCCCCCCCOC(=O)C1=CC(=C(C(=C1)O)O)O
InChI: InChI=1S/C19H30O5/c1-2-3-4-5-6-7-8-9-10-11-12-24-19(23)15-13-16(20)18(22)17(21)14-15/h13-14,20-22H,2-12H2,1H3
Instrument: Exploris 240 Orbitrap Thermo Scientific
Instrument type: LC-ESI-QFT
Ms type: MS2
Ion mode: POSITIVE
Ionization: ESI
Fragmentation mode: HCD
Collision energy: 45 % (nominal)
Resolution: 17500
Column name: XBridge C18 3.5um, 2.1x50mm, Waters
Retention time: 15.167 min
Base peak: 339.2164
Precursor m/z: 339.2166
Precursor type: [M+H]+
m/z	relative intensity	assigned
57.0698	357	C4H9+
71.0855	169	C5H11+
81.0334	56	C5H5O+
85.1011	50	C6H13+
107.0125	55	C6H3O2+
109.0283	357	C6H5O2+
125.0232	171	C6H5O3+
127.0388	999	C6H7O3+
153.0181	659	C7H5O4+
171.0287	503	C7H7O5+
185.0441	63	C8H9O5+
202.0775	243	C16H10+
