Mass spectrum: Irganox 1222; LC-ESI-QFT; MS2; CE: 90%; R=17500; [M+H]+
Name: Irganox 1222
Name: Diethyl ((3,5-bis(1,1-dimethylethyl)-4-hydroxyphenyl)methyl)phosphonate
Name: 2,6-ditert-butyl-4-(diethoxyphosphorylmethyl)phenol
Formula: C19H33O4P
Exact mass: 356.2116462
SMILES: CCOP(=O)(CC1=CC(=C(C(=C1)C(C)(C)C)O)C(C)(C)C)OCC
InChI: InChI=1S/C19H33O4P/c1-9-22-24(21,23-10-2)13-14-11-15(18(3,4)5)17(20)16(12-14)19(6,7)8/h11-12,20H,9-10,13H2,1-8H3
Instrument: Exploris 240 Orbitrap Thermo Scientific
Instrument type: LC-ESI-QFT
Ms type: MS2
Ion mode: POSITIVE
Ionization: ESI
Fragmentation mode: HCD
Collision energy: 90 % (nominal)
Resolution: 17500
Column name: XBridge C18 3.5um, 2.1x50mm, Waters
Retention time: 13.021 min
Base peak: 357.2186
Precursor m/z: 357.2189
Precursor type: [M+H]+
m/z	relative intensity	assigned
55.0541	16	C4H7+
57.0699	192	C4H9+
67.0541	12	C5H7+
69.0697	17	C5H9+
77.0384	7	C6H5+
79.0544	32	C6H7+
81.0698	15	C6H9+
91.0543	79	C7H7+
93.0698	21	C7H9+
105.0698	45	C8H9+
107.0491	999	C7H7O+
117.07	15	C9H9+
119.0492	64	C8H7O+
119.0855	78	C9H11+
121.1012	40	C9H13+
129.0693	7	C10H9+
131.0857	11	C10H11+
133.101	38	C10H13+
135.0803	40	C9H11O+
145.1013	19	C11H13+
147.0805	332	C10H11O+
161.0965	12	C11H13O+
161.1324	24	C12H17+
163.1118	183	C11H15O+
173.0958	12	C12H13O+
187.1124	10	C13H15O+
188.12	6	C13H16O+
203.1434	59	C14H19O+
219.1742	12	C15H23O+
