Mass spectrum: 4-Hydroxybenzoic Acid; LC-ESI-QFT; MS2; CE: 90%; R=17500; [M-H]-
Name: 4-Hydroxybenzoic Acid
Formula: C7H6O3
Exact mass: 138.031694052
SMILES: C1=CC(=CC=C1C(=O)O)O
InChI: InChI=1S/C7H6O3/c8-6-3-1-5(2-4-6)7(9)10/h1-4,8H,(H,9,10)
Instrument: Exploris 240 Orbitrap Thermo Scientific
Instrument type: LC-ESI-QFT
Ms type: MS2
Ion mode: NEGATIVE
Ionization: ESI
Fragmentation mode: HCD
Collision energy: 90 % (nominal)
Resolution: 17500
Column name: XBridge C18 3.5um, 2.1x50mm, Waters
Retention time: 3.272 min
Base peak: 137.0244
Precursor m/z: 137.0244
Precursor type: [M-H]-
m/z	relative intensity	assigned
41.0033	1	C2HO-
65.0397	33	C5H5-
75.0239	2	C6H3-
93.0346	999	C6H5O-
