Mass spectrum: 3',4,4',5,7-Pentahydroxyflavan; LC-ESI-QFT; MS2; CE: 150%; R=17500; [M+H]+
Name: 3',4,4',5,7-Pentahydroxyflavan
Name: 2-(3,4-dihydroxyphenyl)-3,4-dihydro-2H-chromene-4,5,7-triol
Formula: C15H14O6
Exact mass: 290.0790382
SMILES: C1C(C2=C(C=C(C=C2OC1C3=CC(=C(C=C3)O)O)O)O)O
InChI: InChI=1S/C15H14O6/c16-8-4-11(19)15-12(20)6-13(21-14(15)5-8)7-1-2-9(17)10(18)3-7/h1-5,12-13,16-20H,6H2
Instrument: Exploris 240 Orbitrap Thermo Scientific
Instrument type: LC-ESI-QFT
Ms type: MS2
Ion mode: POSITIVE
Ionization: ESI
Fragmentation mode: HCD
Collision energy: 150 % (nominal)
Resolution: 17500
Column name: XBridge C18 3.5um, 2.1x50mm, Waters
Retention time: 2.891 min
Base peak: 291.0861
Precursor m/z: 291.0863
Precursor type: [M+H]+
m/z	relative intensity	assigned
50.0151	97	C4H2+
51.0229	999	C4H3+
53.0021	26	C3HO+
53.0385	156	C4H5+
55.0178	244	C3H3O+
55.0543	28	C4H7+
63.0229	47	C5H3+
65.0385	759	C5H5+
67.0179	75	C4H3O+
67.0543	62	C5H7+
68.997	455	C3HO2+
69.0336	28	C4H5O+
71.0127	56	C3H3O2+
75.0231	25	C6H3+
77.0385	751	C6H5+
79.0542	38	C6H7+
81.0334	44	C5H5O+
89.0384	88	C7H5+
91.0541	342	C7H7+
95.0491	190	C6H7O+
103.0544	39	C8H7+
115.0541	177	C9H7+
119.0492	30	C8H7O+
123.044	243	C7H7O2+
