Mass spectrum: UV120; LC-ESI-QFT; MS2; CE: 90%; R=17500; [M-H]-
Name: UV120
Name: 2,4-Di-tert-butylphenyl 3`,5`-di-tert-butyl-4`-hydroxybenzoate
Name: (2,4-ditert-butylphenyl) 3,5-ditert-butyl-4-hydroxybenzoate
Formula: C29H42O3
Exact mass: 438.313395204
SMILES: CC(C)(C)C1=CC(=C(C=C1)OC(=O)C2=CC(=C(C(=C2)C(C)(C)C)O)C(C)(C)C)C(C)(C)C
InChI: InChI=1S/C29H42O3/c1-26(2,3)19-13-14-23(20(17-19)27(4,5)6)32-25(31)18-15-21(28(7,8)9)24(30)22(16-18)29(10,11)12/h13-17,30H,1-12H3
Instrument: Exploris 240 Orbitrap Thermo Scientific
Instrument type: LC-ESI-QFT
Ms type: MS2
Ion mode: NEGATIVE
Ionization: ESI
Fragmentation mode: HCD
Collision energy: 90 % (nominal)
Resolution: 17500
Column name: XBridge C18 3.5um, 2.1x50mm, Waters
Retention time: 18.091 min
Base peak: 437.306
Precursor m/z: 437.3061
Precursor type: [M-H]-
m/z	relative intensity	assigned
149.0967	8	C10H13O-
189.1285	147	C13H17O-
205.1597	999	C14H21O-
