Mass spectrum: 4HR; LC-ESI-QFT; MS2; CE: 45%; R=17500; [M-H]-
Name: 4HR
Name: Hexylresorcinol
Name: 4-hexylbenzene-1,3-diol
Formula: C12H18O2
Exact mass: 194.1307
SMILES: CCCCCCC1=C(C=C(C=C1)O)O
InChI: InChI=1S/C12H18O2/c1-2-3-4-5-6-10-7-8-11(13)9-12(10)14/h7-9,13-14H,2-6H2,1H3
Instrument: Exploris 240 Orbitrap Thermo Scientific
Instrument type: LC-ESI-QFT
Ms type: MS2
Ion mode: NEGATIVE
Ionization: ESI
Fragmentation mode: HCD
Collision energy: 45 % (nominal)
Resolution: 17500
Column name: XBridge C18 3.5um, 2.1x50mm, Waters
Retention time: 10.297 min
Base peak: 193.1233
Precursor m/z: 193.1234
Precursor type: [M-H]-
m/z	relative intensity	assigned
149.1337	78	C11H17-
151.1127	56	C10H15O-
193.1234	999	C12H17O2-
