Mass spectrum: AO330; LC-ESI-QFT; MS2; CE: 30%; R=17500; [M-H]-
Name: AO330
Name: 1,3,5-Trimethyl-2,4,6-tris(3,5-di-tert-butyl-4-hydroxybenzyl)benzene
Name: 4-[[3,5-bis[(3,5-ditert-butyl-4-hydroxyphenyl)methyl]-2,4,6-trimethylphenyl]methyl]-2,6-ditert-butylphenol
Formula: C54H78O3
Exact mass: 774.5951
SMILES: CC1=C(C(=C(C(=C1CC2=CC(=C(C(=C2)C(C)(C)C)O)C(C)(C)C)C)CC3=CC(=C(C(=C3)C(C)(C)C)O)C(C)(C)C)C)CC4=CC(=C(C(=C4)C(C)(C)C)O)C(C)(C)C
InChI: InChI=1S/C54H78O3/c1-31-37(22-34-25-40(49(4,5)6)46(55)41(26-34)50(7,8)9)32(2)39(24-36-29-44(53(16,17)18)48(57)45(30-36)54(19,20)21)33(3)38(31)23-35-27-42(51(10,11)12)47(56)43(28-35)52(13,14)15/h25-30,55-57H,22-24H2,1-21H3
Instrument: Exploris 240 Orbitrap Thermo Scientific
Instrument type: LC-ESI-QFT
Ms type: MS2
Ion mode: NEGATIVE
Ionization: ESI
Fragmentation mode: HCD
Collision energy: 30 % (nominal)
Resolution: 17500
Column name: XBridge C18 3.5um, 2.1x50mm, Waters
Retention time: 22.504 min
Base peak: 100.9336
Precursor m/z: 773.5878
Precursor type: [M-H]-
m/z	relative intensity	assigned
773.5875	999	C54H77O3-
