Mass spectrum: Taxifolin; LC-ESI-QFT; MS2; CE: 30%; R=17500; [M+H]+
Name: Taxifolin
Name: 3,5,7,3',4'-Pentahydroxyflavanone
Name: 2-(3,4-dihydroxyphenyl)-3,5,7-trihydroxy-2,3-dihydrochromen-4-one
Formula: C15H12O7
Exact mass: 304.0583027
SMILES: C1=CC(=C(C=C1C2C(C(=O)C3=C(C=C(C=C3O2)O)O)O)O)O
InChI: InChI=1S/C15H12O7/c16-7-4-10(19)12-11(5-7)22-15(14(21)13(12)20)6-1-2-8(17)9(18)3-6/h1-5,14-19,21H
Instrument: Exploris 240 Orbitrap Thermo Scientific
Instrument type: LC-ESI-QFT
Ms type: MS2
Ion mode: POSITIVE
Ionization: ESI
Fragmentation mode: HCD
Collision energy: 30 % (nominal)
Resolution: 17500
Column name: XBridge C18 3.5um, 2.1x50mm, Waters
Retention time: 4.381 min
Base peak: 305.0653
Precursor m/z: 305.0656
Precursor type: [M+H]+
m/z	relative intensity	assigned
111.0438	10	C6H7O2+
123.044	311	C7H7O2+
127.0392	11	C6H7O3+
139.0387	10	C7H7O3+
149.0233	361	C8H5O3+
150.0313	13	C8H6O3+
151.0389	34	C8H7O3+
153.0182	699	C7H5O4+
161.0234	36	C9H5O3+
167.0338	102	C8H7O4+
179.0338	62	C9H7O4+
195.0286	226	C9H7O5+
203.034	16	C11H7O4+
231.0652	342	C13H11O4+
241.0498	56	C14H9O4+
258.0514	16	C14H10O5+
259.0602	999	C14H11O5+
287.0549	226	C15H11O6+
305.0654	85	C15H13O7+
