Mass spectrum: Apigenin; LC-ESI-QFT; MS2; CE: 120%; R=17500; [M+H]+
Name: Apigenin
Name: 5,7-dihydroxy-2-(4-hydroxyphenyl)chromen-4-one
Formula: C15H10O5
Exact mass: 270.0528234
SMILES: C1=CC(=CC=C1C2=CC(=O)C3=C(C=C(C=C3O2)O)O)O
InChI: InChI=1S/C15H10O5/c16-9-3-1-8(2-4-9)13-7-12(19)15-11(18)5-10(17)6-14(15)20-13/h1-7,16-18H
Instrument: Exploris 240 Orbitrap Thermo Scientific
Instrument type: LC-ESI-QFT
Ms type: MS2
Ion mode: POSITIVE
Ionization: ESI
Fragmentation mode: HCD
Collision energy: 120 % (nominal)
Resolution: 17500
Column name: XBridge C18 3.5um, 2.1x50mm, Waters
Retention time: 7.105 min
Base peak: 271.0597
Precursor m/z: 271.0601
Precursor type: [M+H]+
m/z	relative intensity	assigned
53.0387	20	C4H5+
55.0178	74	C3H3O+
63.0227	57	C5H3+
65.0385	530	C5H5+
67.0178	257	C4H3O+
68.997	999	C3HO2+
69.0334	168	C4H5O+
77.0385	24	C6H5+
79.0177	40	C5H3O+
81.0334	28	C5H5O+
83.0126	28	C4H3O2+
89.0384	88	C7H5+
91.0541	729	C7H7+
92.9972	15	C5HO2+
97.0282	63	C5H5O2+
115.0541	149	C9H7+
119.049	82	C8H7O+
121.0283	102	C7H5O2+
139.0544	40	C11H7+
141.0701	32	C11H9+
145.0284	155	C9H5O2+
153.0181	226	C7H5O4+
155.049	37	C11H7O+
168.0572	21	C12H8O+
