Mass spectrum: 2,6-Di-Tert-Butyl-4-Nitrophenol; LC-ESI-QFT; MS2; CE: 90%; R=17500; [M+H]+
Name: 2,6-Di-Tert-Butyl-4-Nitrophenol
Name: 2,6-ditert-butyl-4-nitrophenol
Formula: C14H21NO3
Exact mass: 251.1521435
SMILES: CC(C)(C)C1=CC(=CC(=C1O)C(C)(C)C)[N+](=O)[O-]
InChI: InChI=1S/C14H21NO3/c1-13(2,3)10-7-9(15(17)18)8-11(12(10)16)14(4,5)6/h7-8,16H,1-6H3
Instrument: Exploris 240 Orbitrap Thermo Scientific
Instrument type: LC-ESI-QFT
Ms type: MS2
Ion mode: POSITIVE
Ionization: ESI
Fragmentation mode: HCD
Collision energy: 90 % (nominal)
Resolution: 17500
Column name: XBridge C18 3.5um, 2.1x50mm, Waters
Retention time: 13.507 min
Base peak: 252.1592
Precursor m/z: 252.1594
Precursor type: [M+H]+
m/z	relative intensity	assigned
53.0387	37	C4H5+
55.0541	130	C4H7+
57.0699	999	C4H9+
77.0386	69	C6H5+
79.0543	188	C6H7+
91.0543	556	C7H7+
93.0699	289	C7H9+
103.0541	91	C8H7+
105.0699	478	C8H9+
107.0491	89	C7H7O+
107.0857	45	C8H11+
115.0543	41	C9H7+
117.07	172	C9H9+
119.0496	101	C8H7O+
119.0853	271	C9H11+
121.0644	133	C8H9O+
121.1013	162	C9H13+
123.0806	142	C8H11O+
129.0698	78	C10H9+
130.0783	50	C10H10+
131.0859	88	C10H11+
133.0649	40	C9H9O+
135.0808	82	C9H11O+
147.0804	445	C10H11O+
149.096	657	C10H13O+
160.0884	32	C11H12O+
162.1042	79	C11H14O+
163.1119	264	C11H15O+
175.1119	455	C12H15O+
190.1353	753	C13H18O+
192.1016	113	C11H14NO2+
220.1332	382	C13H18NO2+
222.1254	151	C13H18O3+
