Mass spectrum: Idebenone; LC-ESI-QFT; MS2; CE: 45%; R=17500; [M+H]+
Name: Idebenone
Name: 2-(10-hydroxydecyl)-5,6-dimethoxy-3-methylcyclohexa-2,5-diene-1,4-dione
Formula: C19H30O5
Exact mass: 338.2093241
SMILES: CC1=C(C(=O)C(=C(C1=O)OC)OC)CCCCCCCCCCO
InChI: InChI=1S/C19H30O5/c1-14-15(12-10-8-6-4-5-7-9-11-13-20)17(22)19(24-3)18(23-2)16(14)21/h20H,4-13H2,1-3H3
Instrument: Exploris 240 Orbitrap Thermo Scientific
Instrument type: LC-ESI-QFT
Ms type: MS2
Ion mode: POSITIVE
Ionization: ESI
Fragmentation mode: HCD
Collision energy: 45 % (nominal)
Resolution: 17500
Column name: XBridge C18 3.5um, 2.1x50mm, Waters
Retention time: 12.384 min
Base peak: 339.2163
Precursor m/z: 339.2166
Precursor type: [M+H]+
m/z	relative intensity	assigned
55.0541	34	C4H7+
57.0698	13	C4H9+
67.0543	38	C5H7+
69.0698	38	C5H9+
71.0491	8	C4H7O+
79.0543	10	C6H7+
81.0699	59	C6H9+
83.0854	22	C6H11+
93.0698	17	C7H9+
95.0855	48	C7H11+
109.0648	6	C7H9O+
117.07	8	C9H9+
121.0649	54	C8H9O+
123.0802	7	C8H11O+
131.0853	12	C10H11+
135.0805	16	C9H11O+
137.0596	49	C8H9O2+
139.0756	13	C8H11O2+
145.0648	16	C10H9O+
145.1011	20	C11H13+
147.0803	12	C10H11O+
149.0599	8	C9H9O2+
151.0753	118	C9H11O2+
153.0547	12	C8H9O3+
154.0625	65	C8H10O3+
155.0703	13	C8H11O3+
161.059	15	C10H9O2+
163.0756	24	C10H11O2+
163.1115	9	C11H15O+
165.0542	9	C9H9O3+
167.0703	44	C9H11O3+
169.0857	107	C9H13O3+
173.0592	14	C11H9O2+
173.0957	10	C12H13O+
175.0759	13	C11H11O2+
177.0547	35	C10H9O3+
177.091	24	C11H13O2+
179.0702	14	C10H11O3+
181.0859	69	C10H13O3+
182.0575	62	C9H10O4+
183.0646	38	C9H11O4+
187.0753	12	C12H11O2+
187.1113	7	C13H15O+
191.0701	67	C11H11O3+
193.0865	9	C11H13O3+
195.0649	7	C10H11O4+
197.0808	999	C10H13O4+
205.0857	18	C12H13O3+
207.1018	19	C12H15O3+
209.0808	14	C11H13O4+
219.1023	8	C13H15O3+
223.0961	30	C12H15O4+
261.1856	14	C17H25O2+
289.1806	68	C18H25O3+
