Mass spectrum: EQ; LC-ESI-QFT; MS2; CE: 120%; R=17500; [M+H]+
Name: EQ
Name: Ethoxyquin
Name: 6-ethoxy-2,2,4-trimethyl-1H-quinoline
Formula: C14H19NO
Exact mass: 217.1467
SMILES: CCOC1=CC2=C(C=C1)NC(C=C2C)(C)C
InChI: InChI=1S/C14H19NO/c1-5-16-11-6-7-13-12(8-11)10(2)9-14(3,4)15-13/h6-9,15H,5H2,1-4H3
Instrument: Exploris 240 Orbitrap Thermo Scientific
Instrument type: LC-ESI-QFT
Ms type: MS2
Ion mode: POSITIVE
Ionization: ESI
Fragmentation mode: HCD
Collision energy: 120 % (nominal)
Resolution: 17500
Column name: XBridge C18 3.5um, 2.1x50mm, Waters
Retention time: 5.669 min
Base peak: 218.1536
Precursor m/z: 218.1539
Precursor type: [M+H]+
m/z	relative intensity	assigned
53.0387	82	C4H5+
65.0386	231	C5H5+
79.0543	292	C6H7+
80.0496	53	C5H6N+
89.0386	92	C7H5+
91.0542	225	C7H7+
94.0656	95	C6H8N+
95.0491	192	C6H7O+
103.0542	167	C8H7+
104.0497	82	C7H6N+
105.0572	128	C7H7N+
106.0651	194	C7H8N+
107.0491	267	C7H7O+
115.0542	161	C9H7+
116.0496	56	C8H6N+
117.0574	259	C8H7N+
118.0652	400	C8H8N+
120.081	83	C8H10N+
122.0601	133	C7H8NO+
128.0621	55	C10H8+
129.0701	96	C10H9+
130.0655	168	C9H8N+
131.073	476	C9H9N+
132.0808	190	C9H10N+
133.0522	485	C8H7NO+
134.0603	216	C8H8NO+
143.0726	113	C10H9N+
144.0815	63	C10H10N+
145.0884	107	C10H11N+
146.0601	727	C9H8NO+
146.0963	329	C10H12N+
147.0678	60	C9H9NO+
148.0758	74	C9H10NO+
158.0969	87	C11H12N+
159.0675	195	C10H9NO+
160.0758	999	C10H10NO+
174.0914	636	C11H12NO+
202.1232	56	C13H16NO+
