Mass spectrum: AO1035; LC-ESI-QFT; MS2; CE: 60%; R=17500; [M+H]+
Name: AO1035
Name: Irganox 1035
Name: 2-[2-[3-(3,5-ditert-butyl-4-hydroxyphenyl)propanoyloxy]ethylsulfanyl]ethyl 3-(3,5-ditert-butyl-4-hydroxyphenyl)propanoate
Formula: C38H58O6S
Exact mass: 642.3954
SMILES: CC(C)(C)C1=CC(=CC(=C1O)C(C)(C)C)CCC(=O)OCCSCCOC(=O)CCC2=CC(=C(C(=C2)C(C)(C)C)O)C(C)(C)C
InChI: InChI=1S/C38H58O6S/c1-35(2,3)27-21-25(22-28(33(27)41)36(4,5)6)13-15-31(39)43-17-19-45-20-18-44-32(40)16-14-26-23-29(37(7,8)9)34(42)30(24-26)38(10,11)12/h21-24,41-42H,13-20H2,1-12H3
Instrument: Exploris 240 Orbitrap Thermo Scientific
Instrument type: LC-ESI-QFT
Ms type: MS2
Ion mode: POSITIVE
Ionization: ESI
Fragmentation mode: HCD
Collision energy: 60 % (nominal)
Resolution: 17500
Column name: XBridge C18 3.5um, 2.1x50mm, Waters
Retention time: 17.433 min
Base peak: 309.1516
Precursor m/z: 643.4027
Precursor type: [M+H]+
m/z	relative intensity	assigned
133.0647	999	C9H9O+
147.0809	88	C10H11O+
163.1118	237	C11H15O+
175.0759	116	C11H11O2+
193.086	334	C11H13O3+
219.1741	150	C15H23O+
231.1377	180	C15H19O2+
249.1486	101	C15H21O3+
