Mass spectrum: Apigenin; LC-ESI-QFT; MS2; CE: 75%; R=17500; [M+H]+
Name: Apigenin
Name: 5,7-dihydroxy-2-(4-hydroxyphenyl)chromen-4-one
Formula: C15H10O5
Exact mass: 270.0528234
SMILES: C1=CC(=CC=C1C2=CC(=O)C3=C(C=C(C=C3O2)O)O)O
InChI: InChI=1S/C15H10O5/c16-9-3-1-8(2-4-9)13-7-12(19)15-11(18)5-10(17)6-14(15)20-13/h1-7,16-18H
Instrument: Exploris 240 Orbitrap Thermo Scientific
Instrument type: LC-ESI-QFT
Ms type: MS2
Ion mode: POSITIVE
Ionization: ESI
Fragmentation mode: HCD
Collision energy: 75 % (nominal)
Resolution: 17500
Column name: XBridge C18 3.5um, 2.1x50mm, Waters
Retention time: 7.105 min
Base peak: 271.0597
Precursor m/z: 271.0601
Precursor type: [M+H]+
m/z	relative intensity	assigned
67.0178	198	C4H3O+
68.997	140	C3HO2+
69.0336	10	C4H5O+
81.0336	8	C5H5O+
91.0542	204	C7H7+
97.028	10	C5H5O2+
111.0076	34	C5H3O3+
119.049	506	C8H7O+
121.0284	147	C7H5O2+
125.023	22	C6H5O3+
131.049	11	C9H7O+
141.0695	41	C11H9+
145.0281	124	C9H5O2+
153.0181	999	C7H5O4+
163.0386	83	C9H7O3+
169.064	28	C12H9O+
171.029	10	C7H7O5+
187.0391	24	C11H7O3+
197.0594	26	C13H9O2+
225.055	31	C14H9O3+
229.049	41	C13H9O4+
243.0654	50	C14H11O4+
253.0502	16	C15H9O4+
271.06	830	C15H11O5+
