Mass spectrum: Irganox 1222; LC-ESI-QFT; MS2; CE: 15%; R=17500; [M+H]+
Name: Irganox 1222
Name: Diethyl ((3,5-bis(1,1-dimethylethyl)-4-hydroxyphenyl)methyl)phosphonate
Name: 2,6-ditert-butyl-4-(diethoxyphosphorylmethyl)phenol
Formula: C19H33O4P
Exact mass: 356.2116462
SMILES: CCOP(=O)(CC1=CC(=C(C(=C1)C(C)(C)C)O)C(C)(C)C)OCC
InChI: InChI=1S/C19H33O4P/c1-9-22-24(21,23-10-2)13-14-11-15(18(3,4)5)17(20)16(12-14)19(6,7)8/h11-12,20H,9-10,13H2,1-8H3
Instrument: Exploris 240 Orbitrap Thermo Scientific
Instrument type: LC-ESI-QFT
Ms type: MS2
Ion mode: POSITIVE
Ionization: ESI
Fragmentation mode: HCD
Collision energy: 15 % (nominal)
Resolution: 17500
Column name: XBridge C18 3.5um, 2.1x50mm, Waters
Retention time: 13.021 min
Base peak: 357.2186
Precursor m/z: 357.2189
Precursor type: [M+H]+
m/z	relative intensity	assigned
57.0697	2	C4H9+
273.126	6	C13H22O4P+
301.1562	191	C15H26O4P+
357.2189	999	C19H34O4P+
