Mass spectrum: N-(1-Methylheptyl)-N'-phenyl-p-phenylenediamine; LC-ESI-QFT; MS2; CE: 120%; R=17500; [M+H]+
Name: N-(1-Methylheptyl)-N'-phenyl-p-phenylenediamine
Name: 4-N-octan-2-yl-1-N-phenylbenzene-1,4-diamine
Formula: C20H28N2
Exact mass: 296.2252489
SMILES: CCCCCCC(C)NC1=CC=C(C=C1)NC2=CC=CC=C2
InChI: InChI=1S/C20H28N2/c1-3-4-5-7-10-17(2)21-19-13-15-20(16-14-19)22-18-11-8-6-9-12-18/h6,8-9,11-17,21-22H,3-5,7,10H2,1-2H3
Instrument: Exploris 240 Orbitrap Thermo Scientific
Instrument type: LC-ESI-QFT
Ms type: MS2
Ion mode: POSITIVE
Ionization: ESI
Fragmentation mode: HCD
Collision energy: 120 % (nominal)
Resolution: 17500
Column name: XBridge C18 3.5um, 2.1x50mm, Waters
Retention time: 10.936 min
Base peak: 297.2322
Precursor m/z: 297.2325
Precursor type: [M+H]+
m/z	relative intensity	assigned
53.0385	17	C4H5+
57.0698	8	C4H9+
63.0227	7	C5H3+
65.0386	54	C5H5+
66.0463	93	C5H6+
77.0387	9	C6H5+
79.0415	18	C5H5N+
80.0494	380	C5H6N+
81.0572	92	C5H7N+
91.0415	21	C6H5N+
92.0495	34	C6H6N+
93.0572	402	C6H7N+
105.0447	22	C6H5N2+
106.0524	25	C6H6N2+
107.0603	999	C6H7N2+
108.0681	66	C6H8N2+
115.0539	18	C9H7+
118.0523	83	C7H6N2+
130.0645	29	C9H8N+
139.0543	21	C11H7+
140.0492	6	C10H6N+
143.0725	18	C10H9N+
156.0807	45	C11H10N+
157.0885	14	C11H11N+
166.0649	146	C12H8N+
167.0728	195	C12H9N+
168.0816	16	C12H10N+
169.0759	18	C11H9N2+
182.0836	52	C12H10N2+
183.0915	153	C12H11N2+
184.0992	163	C12H12N2+
