Mass spectrum: AO1024; LC-ESI-QFT; MS2; CE: 120%; R=17500; [M+H]+
Name: AO1024
Name: 1,2-Bis(3,5-di-tert-butyl-4-hydroxyhydrocinnamoyl)hydrazine
Name: 3-(3,5-ditert-butyl-4-hydroxyphenyl)-N'-[3-(3,5-ditert-butyl-4-hydroxyphenyl)propanoyl]propanehydrazide
Formula: C34H52N2O4
Exact mass: 552.3927081
SMILES: CC(C)(C)C1=CC(=CC(=C1O)C(C)(C)C)CCC(=O)NNC(=O)CCC2=CC(=C(C(=C2)C(C)(C)C)O)C(C)(C)C
InChI: InChI=1S/C34H52N2O4/c1-31(2,3)23-17-21(18-24(29(23)39)32(4,5)6)13-15-27(37)35-36-28(38)16-14-22-19-25(33(7,8)9)30(40)26(20-22)34(10,11)12/h17-20,39-40H,13-16H2,1-12H3,(H,35,37)(H,36,38)
Instrument: Exploris 240 Orbitrap Thermo Scientific
Instrument type: LC-ESI-QFT
Ms type: MS2
Ion mode: POSITIVE
Ionization: ESI
Fragmentation mode: HCD
Collision energy: 120 % (nominal)
Resolution: 17500
Column name: XBridge C18 3.5um, 2.1x50mm, Waters
Retention time: 15.091 min
Base peak: 570.4265
Precursor m/z: 553.4
Precursor type: [M+H]+
m/z	relative intensity	assigned
65.0387	37	C5H5+
67.0543	25	C5H7+
69.0699	9	C5H9+
75.0553	13	C2H7N2O+
77.0387	65	C6H5+
79.0542	129	C6H7+
81.0336	6	C5H5O+
81.0699	19	C6H9+
91.0543	387	C7H7+
93.0698	45	C7H9+
94.0414	7	C6H6O+
95.0492	50	C6H7O+
103.0542	40	C8H7+
104.0621	16	C8H8+
105.0445	47	C6H5N2+
105.0698	107	C8H9+
107.0492	999	C7H7O+
115.0543	30	C9H7+
117.07	48	C9H9+
119.0492	105	C8H7O+
119.0854	79	C9H11+
121.0651	14	C8H9O+
121.1011	20	C9H13+
128.0617	23	C10H8+
129.0701	22	C10H9+
130.0778	12	C10H10+
131.0492	12	C9H7O+
131.0856	25	C10H11+
132.057	14	C9H8O+
133.065	38	C9H9O+
133.1011	33	C10H13+
137.0595	23	C8H9O2+
142.0779	6	C11H10+
143.0853	5	C11H11+
145.0649	10	C10H9O+
145.1012	41	C11H13+
147.0805	171	C10H11O+
155.0855	12	C12H11+
161.0968	7	C11H13O+
163.1112	22	C11H15O+
173.0962	12	C12H13O+
