Mass spectrum: Aureusidin; LC-ESI-QFT; MS2; CE: 120%; R=17500; [M+H]+
Name: Aureusidin
Name: 2-[(3,4-Dihydroxyphenyl)methylidene]-4,6-dihydroxy-3-benzofuranone
Name: 2-[(3,4-dihydroxyphenyl)methylidene]-4,6-dihydroxy-1-benzofuran-3-one
Formula: C15H10O6
Exact mass: 286.047738
SMILES: C1=CC(=C(C=C1C=C2C(=O)C3=C(C=C(C=C3O2)O)O)O)O
InChI: InChI=1S/C15H10O6/c16-8-5-11(19)14-12(6-8)21-13(15(14)20)4-7-1-2-9(17)10(18)3-7/h1-6,16-19H
Instrument: Exploris 240 Orbitrap Thermo Scientific
Instrument type: LC-ESI-QFT
Ms type: MS2
Ion mode: POSITIVE
Ionization: ESI
Fragmentation mode: HCD
Collision energy: 120 % (nominal)
Resolution: 17500
Column name: XBridge C18 3.5um, 2.1x50mm, Waters
Retention time: 5.270 min
Base peak: 287.0547
Precursor m/z: 287.055
Precursor type: [M+H]+
m/z	relative intensity	assigned
51.0228	93	C4H3+
53.0386	107	C4H5+
55.0179	116	C3H3O+
63.0229	314	C5H3+
65.0385	147	C5H5+
67.0178	73	C4H3O+
68.9971	655	C3HO2+
69.0334	139	C4H5O+
77.0385	437	C6H5+
78.0464	21	C6H6+
79.0179	54	C5H3O+
79.0543	56	C6H7+
81.0333	80	C5H5O+
83.0128	28	C4H3O2+
89.0386	999	C7H5+
91.0545	107	C7H7+
95.0491	137	C6H7O+
97.0289	43	C5H5O2+
102.0462	15	C8H6+
103.0543	48	C8H7+
105.0336	142	C7H5O+
105.0697	19	C8H9+
107.0492	61	C7H7O+
108.0208	40	C6H4O2+
115.0542	290	C9H7+
117.0336	27	C8H5O+
121.0285	53	C7H5O2+
123.0447	20	C7H7O2+
127.0546	45	C10H7+
128.0621	253	C10H8+
129.0703	16	C10H9+
131.0489	74	C9H7O+
139.0543	161	C11H7+
145.0648	30	C10H9O+
147.0443	17	C9H7O2+
153.0181	123	C7H5O4+
163.0397	22	C9H7O3+
