Mass spectrum: Naringenin; LC-ESI-QFT; MS2; CE: 90%; R=17500; [M+H]+
Name: Naringenin
Name: (+-)-Naringenin
Name: 5,7-dihydroxy-2-(4-hydroxyphenyl)-2,3-dihydrochromen-4-one
Formula: C15H12O5
Exact mass: 272.0684735
SMILES: C1C(OC2=CC(=CC(=C2C1=O)O)O)C3=CC=C(C=C3)O
InChI: InChI=1S/C15H12O5/c16-9-3-1-8(2-4-9)13-7-12(19)15-11(18)5-10(17)6-14(15)20-13/h1-6,13,16-18H,7H2
Instrument: Exploris 240 Orbitrap Thermo Scientific
Instrument type: LC-ESI-QFT
Ms type: MS2
Ion mode: POSITIVE
Ionization: ESI
Fragmentation mode: HCD
Collision energy: 90 % (nominal)
Resolution: 17500
Column name: XBridge C18 3.5um, 2.1x50mm, Waters
Retention time: 6.351 min
Base peak: 273.0755
Precursor m/z: 273.0757
Precursor type: [M+H]+
m/z	relative intensity	assigned
53.0385	18	C4H5+
55.0179	49	C3H3O+
65.0386	81	C5H5+
67.0178	164	C4H3O+
68.9971	196	C3HO2+
69.0335	209	C4H5O+
77.0388	37	C6H5+
79.0179	22	C5H3O+
81.0333	17	C5H5O+
83.0128	43	C4H3O2+
91.0542	750	C7H7+
95.0492	99	C6H7O+
97.0283	97	C5H5O2+
107.0493	55	C7H7O+
111.0076	24	C5H3O3+
119.0491	511	C8H7O+
123.0441	31	C7H7O2+
147.0442	98	C9H7O2+
153.0182	999	C7H5O4+
