Mass spectrum: IPPD; LC-ESI-QFT; MS2; CE: 120%; R=17500; [M+H]+
Name: IPPD
Name: N-Isopropyl-N`-phenyl-p-phenylenediamine
Name: 1-N-phenyl-4-N-propan-2-ylbenzene-1,4-diamine
Formula: C15H18N2
Exact mass: 226.1470
SMILES: CC(C)NC1=CC=C(C=C1)NC2=CC=CC=C2
InChI: InChI=1S/C15H18N2/c1-12(2)16-14-8-10-15(11-9-14)17-13-6-4-3-5-7-13/h3-12,16-17H,1-2H3
Instrument: Exploris 240 Orbitrap Thermo Scientific
Instrument type: LC-ESI-QFT
Ms type: MS2
Ion mode: POSITIVE
Ionization: ESI
Fragmentation mode: HCD
Collision energy: 120 % (nominal)
Resolution: 17500
Column name: XBridge C18 3.5um, 2.1x50mm, Waters
Retention time: 4.968 min
Base peak: 227.1539
Precursor m/z: 227.1543
Precursor type: [M+H]+
m/z	relative intensity	assigned
66.0465	56	C5H6+
80.0495	366	C5H6N+
81.0572	72	C5H7N+
93.0573	107	C6H7N+
107.0603	999	C6H7N2+
166.0651	126	C12H8N+
167.0729	81	C12H9N+
183.0918	154	C12H11N2+
184.0993	150	C12H12N2+
