Mass spectrum: AO1035; LC-ESI-QFT; MS2; CE: 30%; R=17500; [M-H]-
Name: AO1035
Name: Irganox 1035
Name: 2-[2-[3-(3,5-ditert-butyl-4-hydroxyphenyl)propanoyloxy]ethylsulfanyl]ethyl 3-(3,5-ditert-butyl-4-hydroxyphenyl)propanoate
Formula: C38H58O6S
Exact mass: 642.3954
SMILES: CC(C)(C)C1=CC(=CC(=C1O)C(C)(C)C)CCC(=O)OCCSCCOC(=O)CCC2=CC(=C(C(=C2)C(C)(C)C)O)C(C)(C)C
InChI: InChI=1S/C38H58O6S/c1-35(2,3)27-21-25(22-28(33(27)41)36(4,5)6)13-15-31(39)43-17-19-45-20-18-44-32(40)16-14-26-23-29(37(7,8)9)34(42)30(24-26)38(10,11)12/h21-24,41-42H,13-20H2,1-12H3
Instrument: Exploris 240 Orbitrap Thermo Scientific
Instrument type: LC-ESI-QFT
Ms type: MS2
Ion mode: NEGATIVE
Ionization: ESI
Fragmentation mode: HCD
Collision energy: 30 % (nominal)
Resolution: 17500
Column name: XBridge C18 3.5um, 2.1x50mm, Waters
Retention time: 17.446 min
Base peak: 641.3881
Precursor m/z: 641.3881
Precursor type: [M-H]-
m/z	relative intensity	assigned
83.0138	83	C4H3O2-
202.0789	77	C16H10-
205.054	114	C8H13O4S-
205.1598	71	C14H21O-
277.181	256	C17H25O3-
363.1998	233	C21H31O3S-
381.2104	256	C21H33O4S-
423.2211	965	C23H35O5S-
641.3884	999	C38H57O6S-
