Mass spectrum: Ellagic Acid; LC-ESI-QFT; MS2; CE: 180%; R=17500; [M+H]+
Name: Ellagic Acid
Name: 6,7,13,14-tetrahydroxy-2,9-dioxatetracyclo[6.6.2.04,16.011,15]hexadeca-1(15),4,6,8(16),11,13-hexaene-3,10-dione
Formula: C14H6O8
Exact mass: 302.0062672
SMILES: C1=C2C3=C(C(=C1O)O)OC(=O)C4=CC(=C(C(=C43)OC2=O)O)O
InChI: InChI=1S/C14H6O8/c15-5-1-3-7-8-4(14(20)22-11(7)9(5)17)2-6(16)10(18)12(8)21-13(3)19/h1-2,15-18H
Instrument: Exploris 240 Orbitrap Thermo Scientific
Instrument type: LC-ESI-QFT
Ms type: MS2
Ion mode: POSITIVE
Ionization: ESI
Fragmentation mode: HCD
Collision energy: 180 % (nominal)
Resolution: 17500
Column name: XBridge C18 3.5um, 2.1x50mm, Waters
Retention time: 4.941 min
Base peak: 132.9582
Precursor m/z: 303.0135
Precursor type: [M+H]+
m/z	relative intensity	assigned
50.0152	31	C4H2+
51.0229	151	C4H3+
53.0022	73	C3HO+
53.0386	20	C4H5+
62.0151	95	C5H2+
63.0229	999	C5H3+
65.0386	60	C5H5+
68.997	47	C3HO2+
74.0151	84	C6H2+
75.0229	263	C6H3+
77.0022	131	C5HO+
77.0386	43	C6H5+
79.0178	9	C5H3O+
87.0228	29	C7H3+
88.0304	7	C7H4+
89.0386	234	C7H5+
95.0492	17	C6H7O+
98.0151	182	C8H2+
99.023	155	C8H3+
