Mass spectrum: Taxifolin; LC-ESI-QFT; MS2; CE: 60%; R=17500; [M-H]-
Name: Taxifolin
Name: 3,5,7,3`,4`-Pentahydroxyflavanone
Name: 2-(3,4-dihydroxyphenyl)-3,5,7-trihydroxy-2,3-dihydrochromen-4-one
Formula: C15H12O7
Exact mass: 304.058302724
SMILES: C1=CC(=C(C=C1C2C(C(=O)C3=C(C=C(C=C3O2)O)O)O)O)O
InChI: InChI=1S/C15H12O7/c16-7-4-10(19)12-11(5-7)22-15(14(21)13(12)20)6-1-2-8(17)9(18)3-6/h1-5,14-19,21H
Instrument: Exploris 240 Orbitrap Thermo Scientific
Instrument type: LC-ESI-QFT
Ms type: MS2
Ion mode: NEGATIVE
Ionization: ESI
Fragmentation mode: HCD
Collision energy: 60 % (nominal)
Resolution: 17500
Column name: XBridge C18 3.5um, 2.1x50mm, Waters
Retention time: 4.371 min
Base peak: 303.0509
Precursor m/z: 303.051
Precursor type: [M-H]-
m/z	relative intensity	assigned
57.0346	298	C3H5O-
63.024	19	C5H3-
65.0034	53	C4HO-
81.0345	20	C5H5O-
83.0138	124	C4H3O2-
93.0346	12	C6H5O-
105.0347	12	C7H5O-
107.0138	63	C6H3O2-
108.0218	9	C6H4O2-
109.0295	50	C6H5O2-
111.0092	9	C5H3O3-
121.0298	54	C7H5O2-
122.0372	14	C7H6O2-
123.0451	112	C7H7O2-
124.0166	47	C6H4O3-
125.0244	999	C6H5O3-
133.0298	9	C8H5O2-
137.0244	14	C7H5O3-
139.0404	25	C7H7O3-
143.0507	10	C10H7O-
146.0371	11	C9H6O2-
147.0452	30	C9H7O2-
149.0242	66	C8H5O3-
150.0322	117	C8H6O3-
151.0038	162	C7H3O4-
151.0399	142	C8H7O3-
152.0115	131	C7H4O4-
153.0193	91	C7H5O4-
159.0454	9	C10H7O2-
161.061	19	C10H9O2-
164.0479	12	C9H8O3-
171.0455	20	C11H7O2-
173.0244	13	C10H5O3-
173.0607	12	C11H9O2-
174.0321	52	C10H6O3-
175.04	131	C10H7O3-
177.0192	48	C9H5O4-
178.9985	17	C8H3O5-
185.0604	10	C12H9O2-
188.0483	35	C11H8O3-
189.0558	56	C11H9O3-
193.0505	51	C10H9O4-
199.0399	65	C12H7O3-
201.0189	33	C11H5O4-
213.0554	12	C13H9O3-
216.0424	15	C12H8O4-
217.0508	50	C12H9O4-
241.0507	17	C14H9O4-
