Mass spectrum: Idebenone; LC-ESI-QFT; MS2; CE: 120%; R=17500; [M+H]+
Name: Idebenone
Name: 2-(10-hydroxydecyl)-5,6-dimethoxy-3-methylcyclohexa-2,5-diene-1,4-dione
Formula: C19H30O5
Exact mass: 338.2093241
SMILES: CC1=C(C(=O)C(=C(C1=O)OC)OC)CCCCCCCCCCO
InChI: InChI=1S/C19H30O5/c1-14-15(12-10-8-6-4-5-7-9-11-13-20)17(22)19(24-3)18(23-2)16(14)21/h20H,4-13H2,1-3H3
Instrument: Exploris 240 Orbitrap Thermo Scientific
Instrument type: LC-ESI-QFT
Ms type: MS2
Ion mode: POSITIVE
Ionization: ESI
Fragmentation mode: HCD
Collision energy: 120 % (nominal)
Resolution: 17500
Column name: XBridge C18 3.5um, 2.1x50mm, Waters
Retention time: 12.384 min
Base peak: 339.2163
Precursor m/z: 339.2166
Precursor type: [M+H]+
m/z	relative intensity	assigned
51.0229	35	C4H3+
53.0386	303	C4H5+
54.0465	37	C4H6+
55.0179	52	C3H3O+
55.0542	232	C4H7+
65.0385	341	C5H5+
66.0464	191	C5H6+
67.0178	40	C4H3O+
67.0542	208	C5H7+
68.9971	117	C3HO2+
69.0334	83	C4H5O+
77.0385	353	C6H5+
78.0464	122	C6H6+
79.0542	730	C6H7+
80.062	194	C6H8+
81.0335	81	C5H5O+
81.07	55	C6H9+
82.0413	70	C5H6O+
83.0127	80	C4H3O2+
83.0491	999	C5H7O+
89.0386	53	C7H5+
90.0465	33	C7H6+
91.0542	557	C7H7+
93.0335	48	C6H5O+
93.07	52	C7H9+
94.0412	111	C6H6O+
95.0492	191	C6H7O+
96.0568	37	C6H8O+
97.0648	52	C6H9O+
103.0544	68	C8H7+
105.0702	76	C8H9+
107.049	200	C7H7O+
108.0568	71	C7H8O+
109.065	51	C7H9O+
111.0439	386	C6H7O2+
115.0542	125	C9H7+
119.0492	43	C8H7O+
123.0442	57	C7H7O2+
123.0805	57	C8H11O+
124.0518	30	C7H8O2+
125.0598	63	C7H9O2+
128.0622	46	C10H8+
131.0494	49	C9H7O+
135.0443	65	C8H7O2+
136.052	36	C8H8O2+
139.039	134	C7H7O3+
147.0436	45	C9H7O2+
154.0626	42	C8H10O3+
