Mass spectrum: 2,2`-Dihydroxy-4,4`-dimethoxybenzophenone; LC-ESI-QFT; MS2; CE: 30%; R=17500; [M-H]-
Name: 2,2`-Dihydroxy-4,4`-dimethoxybenzophenone
Name: Benzophenone-6
Name: bis(2-hydroxy-4-methoxyphenyl)methanone
Formula: C15H14O5
Exact mass: 274.084123548
SMILES: COC1=CC(=C(C=C1)C(=O)C2=C(C=C(C=C2)OC)O)O
InChI: InChI=1S/C15H14O5/c1-19-9-3-5-11(13(16)7-9)15(18)12-6-4-10(20-2)8-14(12)17/h3-8,16-17H,1-2H3
Instrument: Exploris 240 Orbitrap Thermo Scientific
Instrument type: LC-ESI-QFT
Ms type: MS2
Ion mode: NEGATIVE
Ionization: ESI
Fragmentation mode: HCD
Collision energy: 30 % (nominal)
Resolution: 17500
Column name: XBridge C18 3.5um, 2.1x50mm, Waters
Retention time: 10.027 min
Base peak: 273.0768
Precursor m/z: 273.0768
Precursor type: [M-H]-
m/z	relative intensity	assigned
108.0215	14	C6H4O2-
123.0452	999	C7H7O2-
214.0632	15	C13H10O3-
225.0557	27	C14H9O3-
227.0705	6	C14H11O3-
229.0867	28	C14H13O3-
241.0515	12	C14H9O4-
273.0769	113	C15H13O5-
