Mass spectrum: (-)-Epigallocatechin Gallate; LC-ESI-QFT; MS2; CE: 60%; R=17500; [M-H]-
Name: (-)-Epigallocatechin Gallate
Name: Tea, ext.
Name: [5,7-dihydroxy-2-(3,4,5-trihydroxyphenyl)-3,4-dihydro-2H-chromen-3-yl] 3,4,5-trihydroxybenzoate
Formula: C22H18O11
Exact mass: 458.084911396
SMILES: C1C(C(OC2=CC(=CC(=C21)O)O)C3=CC(=C(C(=C3)O)O)O)OC(=O)C4=CC(=C(C(=C4)O)O)O
InChI: InChI=1S/C22H18O11/c23-10-5-12(24)11-7-18(33-22(31)9-3-15(27)20(30)16(28)4-9)21(32-17(11)6-10)8-1-13(25)19(29)14(26)2-8/h1-6,18,21,23-30H,7H2
Instrument: Exploris 240 Orbitrap Thermo Scientific
Instrument type: LC-ESI-QFT
Ms type: MS2
Ion mode: NEGATIVE
Ionization: ESI
Fragmentation mode: HCD
Collision energy: 60 % (nominal)
Resolution: 17500
Column name: XBridge C18 3.5um, 2.1x50mm, Waters
Retention time: 3.421 min
Base peak: 457.0777
Precursor m/z: 457.0776
Precursor type: [M-H]-
m/z	relative intensity	assigned
57.0346	41	C3H5O-
69.0346	13	C4H5O-
79.0189	7	C5H3O-
81.0346	22	C5H5O-
83.0137	10	C4H3O2-
95.0137	3	C5H3O2-
95.0503	5	C6H7O-
97.0294	19	C5H5O2-
105.0346	14	C7H5O-
107.0138	19	C6H3O2-
109.0293	7	C6H5O2-
111.0452	9	C6H7O2-
121.0293	5	C7H5O2-
123.0088	8	C6H3O3-
124.0164	18	C6H4O3-
125.0244	999	C6H5O3-
133.0295	5	C8H5O2-
137.0243	26	C7H5O3-
139.0398	16	C7H7O3-
149.0241	3	C8H5O3-
151.0398	2	C8H7O3-
161.0244	55	C9H5O3-
162.0319	4	C9H6O3-
164.0114	5	C8H4O4-
165.0192	15	C8H5O4-
167.0349	21	C8H7O4-
169.0142	306	C7H5O5-
175.0397	6	C10H7O3-
177.0555	16	C10H9O3-
179.0353	3	C9H7O4-
193.0144	14	C9H5O5-
201.0555	6	C12H9O3-
219.0666	8	C12H11O4-
