Mass spectrum: Taxifolin; LC-ESI-QFT; MS2; CE: 30%; R=17500; [M-H]-
Name: Taxifolin
Name: 3,5,7,3`,4`-Pentahydroxyflavanone
Name: 2-(3,4-dihydroxyphenyl)-3,5,7-trihydroxy-2,3-dihydrochromen-4-one
Formula: C15H12O7
Exact mass: 304.058302724
SMILES: C1=CC(=C(C=C1C2C(C(=O)C3=C(C=C(C=C3O2)O)O)O)O)O
InChI: InChI=1S/C15H12O7/c16-7-4-10(19)12-11(5-7)22-15(14(21)13(12)20)6-1-2-8(17)9(18)3-6/h1-5,14-19,21H
Instrument: Exploris 240 Orbitrap Thermo Scientific
Instrument type: LC-ESI-QFT
Ms type: MS2
Ion mode: NEGATIVE
Ionization: ESI
Fragmentation mode: HCD
Collision energy: 30 % (nominal)
Resolution: 17500
Column name: XBridge C18 3.5um, 2.1x50mm, Waters
Retention time: 4.371 min
Base peak: 303.0509
Precursor m/z: 303.051
Precursor type: [M-H]-
m/z	relative intensity	assigned
83.014	15	C4H3O2-
109.0295	8	C6H5O2-
123.0452	11	C7H7O2-
125.0244	815	C6H5O3-
137.0247	17	C7H5O3-
149.0243	48	C8H5O3-
150.0316	11	C8H6O3-
151.0039	72	C7H3O4-
151.0401	50	C8H7O3-
152.0114	35	C7H4O4-
153.0191	86	C7H5O4-
161.0245	11	C9H5O3-
173.0603	7	C11H9O2-
175.0401	148	C10H7O3-
177.0192	224	C9H5O4-
178.9985	128	C8H3O5-
180.0066	47	C8H4O5-
181.0142	99	C8H5O5-
188.0473	5	C11H8O3-
189.0552	22	C11H9O3-
193.0506	7	C10H9O4-
199.0399	54	C12H7O3-
201.0191	9	C11H5O4-
213.0555	12	C13H9O3-
216.0429	14	C12H8O4-
217.0506	152	C12H9O4-
219.0297	14	C11H7O5-
231.0666	38	C13H11O4-
235.0614	15	C12H11O5-
241.0506	113	C14H9O4-
243.0307	20	C13H7O5-
257.0463	22	C14H9O5-
259.0613	119	C14H11O5-
275.0559	139	C14H11O6-
285.0405	999	C15H9O6-
303.051	58	C15H11O7-
