Mass spectrum: Isoliquiritigenin; LC-ESI-QFT; MS2; CE: 75%; R=17500; [M+H]+
Name: Isoliquiritigenin
Name: 1-(2,4-dihydroxyphenyl)-3-(4-hydroxyphenyl)prop-2-en-1-one
Formula: C15H12O4
Exact mass: 256.0735589
SMILES: C1=CC(=CC=C1C=CC(=O)C2=C(C=C(C=C2)O)O)O
InChI: InChI=1S/C15H12O4/c16-11-4-1-10(2-5-11)3-8-14(18)13-7-6-12(17)9-15(13)19/h1-9,16-17,19H
Instrument: Exploris 240 Orbitrap Thermo Scientific
Instrument type: LC-ESI-QFT
Ms type: MS2
Ion mode: POSITIVE
Ionization: ESI
Fragmentation mode: HCD
Collision energy: 75 % (nominal)
Resolution: 17500
Column name: XBridge C18 3.5um, 2.1x50mm, Waters
Retention time: 7.266 min
Base peak: 257.0806
Precursor m/z: 257.0808
Precursor type: [M+H]+
m/z	relative intensity	assigned
53.0386	18	C4H5+
65.0385	12	C5H5+
68.997	41	C3HO2+
77.0384	4	C6H5+
81.0334	215	C5H5O+
91.0541	161	C7H7+
93.0336	3	C6H5O+
95.0489	39	C6H7O+
107.0492	22	C7H7O+
109.0283	44	C6H5O2+
117.0335	24	C8H5O+
119.0491	293	C8H7O+
123.044	26	C7H7O2+
127.0392	12	C6H7O3+
137.0232	999	C7H5O3+
141.0701	6	C11H9+
147.044	146	C9H7O2+
153.0699	10	C12H9+
163.0392	11	C9H7O3+
165.0696	35	C13H9+
