Mass spectrum: Desoxyguanosine; LC-ESI-QFT; MS2; CE: 90%; R=17500; [M+H]+
Name: Desoxyguanosine
Name: 2-amino-9-[4-hydroxy-5-(hydroxymethyl)oxolan-2-yl]-1H-purin-6-one
Formula: C10H13N5O4
Exact mass: 267.0967539
SMILES: C1C(C(OC1N2C=NC3=C2N=C(NC3=O)N)CO)O
InChI: InChI=1S/C10H13N5O4/c11-10-13-8-7(9(18)14-10)12-3-15(8)6-1-4(17)5(2-16)19-6/h3-6,16-17H,1-2H2,(H3,11,13,14,18)
Instrument: Exploris 240 Orbitrap Thermo Scientific
Instrument type: LC-ESI-QFT
Ms type: MS2
Ion mode: POSITIVE
Ionization: ESI
Fragmentation mode: HCD
Collision energy: 90 % (nominal)
Resolution: 17500
Column name: XBridge C18 3.5um, 2.1x50mm, Waters
Retention time: 6.504 min
Base peak: 186.0913
Precursor m/z: 186.0913
Precursor type: [M+H]+
m/z	relative intensity	assigned
65.0387	51	C5H5+
80.0495	42	C5H6N+
81.0336	42	C5H5O+
81.0573	20	C5H7N+
92.0496	93	C6H6N+
93.0574	100	C6H7N+
108.0445	111	C6H6NO+
109.0523	999	C6H7NO+
115.0544	5	C9H7+
141.0702	18	C11H9+
167.0734	15	C12H9N+
186.0922	6	C12H12NO+
