Mass spectrum: AO4703; LC-ESI-QFT; MS2; CE: 90%; R=17500; [M+H]+
Name: AO4703
Name: 2,6-ditert-butyl-4-[(dimethylamino)methyl]phenol
Formula: C17H29NO
Exact mass: 263.2249145
SMILES: CC(C)(C)C1=CC(=CC(=C1O)C(C)(C)C)CN(C)C
InChI: InChI=1S/C17H29NO/c1-16(2,3)13-9-12(11-18(7)8)10-14(15(13)19)17(4,5)6/h9-10,19H,11H2,1-8H3
Instrument: Exploris 240 Orbitrap Thermo Scientific
Instrument type: LC-ESI-QFT
Ms type: MS2
Ion mode: POSITIVE
Ionization: ESI
Fragmentation mode: HCD
Collision energy: 90 % (nominal)
Resolution: 17500
Column name: XBridge C18 3.5um, 2.1x50mm, Waters
Retention time: 7.272 min
Base peak: 264.232
Precursor m/z: 264.2322
Precursor type: [M+H]+
m/z	relative intensity	assigned
55.0543	255	C4H7+
57.0699	73	C4H9+
65.0388	37	C5H5+
67.0543	222	C5H7+
69.07	271	C5H9+
79.0543	297	C6H7+
81.07	337	C6H9+
83.0857	37	C6H11+
91.0542	271	C7H7+
93.07	288	C7H9+
95.0857	104	C7H11+
105.07	495	C8H9+
107.0856	281	C8H11+
109.0649	112	C7H9O+
117.0698	92	C9H9+
119.0856	801	C9H11+
121.1012	657	C9H13+
123.081	49	C8H11O+
128.0624	29	C10H8+
129.0702	44	C10H9+
130.0778	63	C10H10+
131.0858	143	C10H11+
133.1012	727	C10H13+
135.081	56	C9H11O+
135.1167	123	C10H15+
142.0779	50	C11H10+
143.0855	61	C11H11+
145.1011	223	C11H13+
147.0805	119	C10H11O+
147.1167	168	C11H15+
155.0857	53	C12H11+
157.1015	61	C12H13+
159.0811	25	C11H11O+
159.1173	66	C12H15+
160.1246	93	C12H16+
161.0963	176	C11H13O+
161.1324	304	C12H17+
170.1096	130	C13H14+
173.0959	130	C12H13O+
175.112	42	C12H15O+
175.1483	115	C13H19+
185.1332	26	C14H17+
187.1118	195	C13H15O+
203.1431	999	C14H19O+
219.1743	233	C15H23O+
