Mass spectrum: 2`-deoxy-8-oxoguanosine; LC-ESI-QFT; MS2; CE: 120%; R=17500; [M-H]-
Name: 2`-deoxy-8-oxoguanosine
Name: CID 3964517
Name: 2-amino-9-[4-hydroxy-5-(hydroxymethyl)oxolan-2-yl]-3,7-dihydropurine-6,8-dione
Formula: C10H13N5O5
Exact mass: 283.091668516
SMILES: C1C(C(OC1N2C3=C(C(=O)NC(=N3)N)NC2=O)CO)O
InChI: InChI=1S/C10H13N5O5/c11-9-13-7-6(8(18)14-9)12-10(19)15(7)5-1-3(17)4(2-16)20-5/h3-5,16-17H,1-2H2,(H,12,19)(H3,11,13,14,18)
Instrument: Exploris 240 Orbitrap Thermo Scientific
Instrument type: LC-ESI-QFT
Ms type: MS2
Ion mode: NEGATIVE
Ionization: ESI
Fragmentation mode: HCD
Collision energy: 120 % (nominal)
Resolution: 17500
Column name: XBridge C18 3.5um, 2.1x50mm, Waters
Retention time: 1.964 min
Base peak: 282.0843
Precursor m/z: 282.0844
Precursor type: [M-H]-
m/z	relative intensity	assigned
66.0098	999	C2N3-
67.0301	365	C3H3N2-
69.0094	40	C2HN2O-
79.0176	60	C3HN3-
94.0302	36	C5H4NO-
95.0252	101	C4H3N2O-
120.0205	27	C5H2N3O-
123.0075	232	C4HN3O2-
