Mass spectrum: 2-[3-(benzotriazol-2-yl)-4-hydroxyphenyl]ethyl 2-methylprop-2-enoate; LC-ESI-QFT; MS2; CE: 120%; R=17500; [M+H]+
Name: 2-[3-(benzotriazol-2-yl)-4-hydroxyphenyl]ethyl 2-methylprop-2-enoate
Formula: C18H17N3O3
Exact mass: 323.1269914
SMILES: CC(=C)C(=O)OCCC1=CC(=C(C=C1)O)N2N=C3C=CC=CC3=N2
InChI: InChI=1S/C18H17N3O3/c1-12(2)18(23)24-10-9-13-7-8-17(22)16(11-13)21-19-14-5-3-4-6-15(14)20-21/h3-8,11,22H,1,9-10H2,2H3
Instrument: Exploris 240 Orbitrap Thermo Scientific
Instrument type: LC-ESI-QFT
Ms type: MS2
Ion mode: POSITIVE
Ionization: ESI
Fragmentation mode: HCD
Collision energy: 120 % (nominal)
Resolution: 17500
Column name: XBridge C18 3.5um, 2.1x50mm, Waters
Retention time: 14.027 min
Base peak: 324.1341
Precursor m/z: 324.1343
Precursor type: [M+H]+
m/z	relative intensity	assigned
51.0229	18	C4H3+
52.0307	9	C4H4+
53.0386	26	C4H5+
63.0229	34	C5H3+
65.0386	999	C5H5+
77.0385	64	C6H5+
78.0338	18	C5H4N+
79.0417	33	C5H5N+
79.0541	44	C6H7+
80.0495	21	C5H6N+
89.0384	21	C7H5+
90.0464	8	C7H6+
91.0542	863	C7H7+
92.0495	36	C6H6N+
95.0491	34	C6H7O+
105.0448	58	C6H5N2+
106.0525	9	C6H6N2+
115.0542	15	C9H7+
120.0559	16	C6H6N3+
139.0542	22	C11H7+
152.0621	11	C12H8+
153.0703	7	C12H9+
154.0646	24	C11H8N+
165.07	10	C13H9+
166.065	32	C12H8N+
167.0731	19	C12H9N+
168.0678	11	C11H8N2+
169.0756	23	C11H9N2+
194.071	22	C12H8N3+
