Mass spectrum: AO1024; LC-ESI-QFT; MS2; CE: 180%; R=17500; [M+H]+
Name: AO1024
Name: 1,2-Bis(3,5-di-tert-butyl-4-hydroxyhydrocinnamoyl)hydrazine
Name: 3-(3,5-ditert-butyl-4-hydroxyphenyl)-N'-[3-(3,5-ditert-butyl-4-hydroxyphenyl)propanoyl]propanehydrazide
Formula: C34H52N2O4
Exact mass: 552.3927081
SMILES: CC(C)(C)C1=CC(=CC(=C1O)C(C)(C)C)CCC(=O)NNC(=O)CCC2=CC(=C(C(=C2)C(C)(C)C)O)C(C)(C)C
InChI: InChI=1S/C34H52N2O4/c1-31(2,3)23-17-21(18-24(29(23)39)32(4,5)6)13-15-27(37)35-36-28(38)16-14-22-19-25(33(7,8)9)30(40)26(20-22)34(10,11)12/h17-20,39-40H,13-16H2,1-12H3,(H,35,37)(H,36,38)
Instrument: Exploris 240 Orbitrap Thermo Scientific
Instrument type: LC-ESI-QFT
Ms type: MS2
Ion mode: POSITIVE
Ionization: ESI
Fragmentation mode: HCD
Collision energy: 180 % (nominal)
Resolution: 17500
Column name: XBridge C18 3.5um, 2.1x50mm, Waters
Retention time: 15.091 min
Base peak: 570.4265
Precursor m/z: 553.4
Precursor type: [M+H]+
m/z	relative intensity	assigned
65.0386	664	C5H5+
67.0542	33	C5H7+
77.0386	559	C6H5+
78.0465	145	C6H6+
79.0542	344	C6H7+
81.0335	38	C5H5O+
89.0387	57	C7H5+
91.0542	999	C7H7+
94.0416	73	C6H6O+
95.0491	479	C6H7O+
102.0465	65	C8H6+
103.0543	233	C8H7+
104.0621	32	C8H8+
105.0446	412	C6H5N2+
105.0697	160	C8H9+
107.0491	263	C7H7O+
115.0542	354	C9H7+
116.0619	42	C9H8+
117.0698	76	C9H9+
127.0544	31	C10H7+
128.062	251	C10H8+
129.07	87	C10H9+
130.0775	20	C10H10+
131.0493	50	C9H7O+
145.0647	22	C10H9O+
155.0602	28	C10H7N2+
