Mass spectrum: AO1081; LC-ESI-QFT; MS2; CE: 120%; R=17500; [M-H]-
Name: AO1081
Name: 2,2`-Thiobis(4-methyl-6-tert-butylphenol)
Name: 2-tert-butyl-6-(3-tert-butyl-2-hydroxy-5-methylphenyl)sulfanyl-4-methylphenol
Formula: C22H30O2S
Exact mass: 358.1966512
SMILES: CC1=CC(=C(C(=C1)SC2=CC(=CC(=C2O)C(C)(C)C)C)O)C(C)(C)C
InChI: InChI=1S/C22H30O2S/c1-13-9-15(21(3,4)5)19(23)17(11-13)25-18-12-14(2)10-16(20(18)24)22(6,7)8/h9-12,23-24H,1-8H3
Instrument: Exploris 240 Orbitrap Thermo Scientific
Instrument type: LC-ESI-QFT
Ms type: MS2
Ion mode: NEGATIVE
Ionization: ESI
Fragmentation mode: HCD
Collision energy: 120 % (nominal)
Resolution: 17500
Column name: XBridge C18 3.5um, 2.1x50mm, Waters
Retention time: 17.101 min
Base peak: 357.1892
Precursor m/z: 357.1894
Precursor type: [M-H]-
m/z	relative intensity	assigned
56.9805	203	C2HS-
79.0554	42	C6H7-
107.0504	41	C7H7O-
109.0116	109	C6H5S-
110.0198	75	C6H6S-
119.0867	80	C9H11-
136.0353	54	C8H8S-
137.0068	177	C7H5OS-
137.0432	85	C8H9S-
138.0145	524	C7H6OS-
147.0816	238	C10H11O-
149.0067	68	C8H5OS-
151.0226	81	C8H7OS-
163.0224	482	C9H7OS-
164.0301	999	C9H8OS-
177.0385	144	C10H9OS-
178.0456	265	C10H10OS-
179.0536	456	C10H11OS-
193.0692	220	C11H13OS-
