Mass spectrum: Tempo; LC-ESI-QFT; MS2; CE: 150%; R=17500; [M+H]+
Name: Tempo
Name: 2,2,6,6-Tetramethyl-1-piperidinyloxy
Formula: C9H18NO
Exact mass: 156.138839198
SMILES: CC1(CCCC(N1[O])(C)C)C
InChI: InChI=1S/C9H18NO/c1-8(2)6-5-7-9(3,4)10(8)11/h5-7H2,1-4H3
Instrument: Exploris 240 Orbitrap Thermo Scientific
Instrument type: LC-ESI-QFT
Ms type: MS2
Ion mode: POSITIVE
Ionization: ESI
Fragmentation mode: HCD
Collision energy: 150 % (nominal)
Resolution: 17500
Column name: XBridge C18 3.5um, 2.1x50mm, Waters
Retention time: 7.067 min
Base peak: 142.1225
Precursor m/z: 157.1461
Precursor type: [M+H]+
m/z	relative intensity	assigned
41.0386	999	C3H5+
42.0338	226	C2H4N+
43.0178	20	C2H3O+
43.0543	46	C3H7+
46.0287	28	CH4NO+
53.0386	81	C4H5+
54.0338	44	C3H4N+
55.0542	186	C4H7+
56.0495	235	C3H6N+
57.0573	117	C3H7N+
60.0443	30	C2H6NO+
65.0386	34	C5H5+
67.0542	247	C5H7+
68.0492	35	C4H6N+
69.0699	799	C5H9+
70.0652	30	C4H8N+
74.06	89	C3H8NO+
79.0544	44	C6H7+
81.0698	65	C6H9+
82.0652	40	C5H8N+
86.0601	72	C4H8NO+
94.0652	26	C6H8N+
96.0808	34	C6H10N+
109.1013	17	C8H13+
110.0962	45	C7H12N+
