Mass spectrum: Kaempferol; LC-ESI-QFT; MS2; CE: 120%; R=17500; [M-H]-
Name: Kaempferol
Name: 3,5,7-trihydroxy-2-(4-hydroxyphenyl)chromen-4-one
Formula: C15H10O6
Exact mass: 286.04773804
SMILES: C1=CC(=CC=C1C2=C(C(=O)C3=C(C=C(C=C3O2)O)O)O)O
InChI: InChI=1S/C15H10O6/c16-8-3-1-7(2-4-8)15-14(20)13(19)12-10(18)5-9(17)6-11(12)21-15/h1-6,16-18,20H
Instrument: Exploris 240 Orbitrap Thermo Scientific
Instrument type: LC-ESI-QFT
Ms type: MS2
Ion mode: NEGATIVE
Ionization: ESI
Fragmentation mode: HCD
Collision energy: 120 % (nominal)
Resolution: 17500
Column name: XBridge C18 3.5um, 2.1x50mm, Waters
Retention time: 6.967 min
Base peak: 285.0403
Precursor m/z: 285.0405
Precursor type: [M-H]-
m/z	relative intensity	assigned
63.024	740	C5H3-
65.0033	867	C4HO-
65.0398	93	C5H5-
67.0189	190	C4H3O-
68.9982	76	C3HO2-
77.0398	115	C6H5-
89.0397	66	C7H5-
91.0187	104	C6H3O-
92.027	182	C6H4O-
93.0347	799	C6H5O-
95.014	67	C5H3O2-
108.0218	136	C6H4O2-
117.0346	999	C8H5O-
130.0423	133	C9H6O-
132.0216	167	C8H4O2-
141.0347	145	C10H5O-
143.0506	123	C10H7O-
145.0296	156	C9H5O2-
154.0424	212	C11H6O-
158.0374	180	C10H6O2-
159.0453	103	C10H7O2-
161.0244	100	C9H5O3-
182.0374	177	C12H6O2-
183.0454	116	C12H7O2-
