Mass spectrum: DBDPA; LC-ESI-QFT; MS2; CE: 150%; R=17500; [M+H]+
Name: DBDPA
Name: Bis(4-tert-butylphenyl)amine
Name: 4-tert-butyl-N-(4-tert-butylphenyl)aniline
Formula: C20H27N
Exact mass: 281.214349864
SMILES: CC(C)(C)C1=CC=C(C=C1)NC2=CC=C(C=C2)C(C)(C)C
InChI: InChI=1S/C20H27N/c1-19(2,3)15-7-11-17(12-8-15)21-18-13-9-16(10-14-18)20(4,5)6/h7-14,21H,1-6H3
Instrument: Exploris 240 Orbitrap Thermo Scientific
Instrument type: LC-ESI-QFT
Ms type: MS2
Ion mode: POSITIVE
Ionization: ESI
Fragmentation mode: HCD
Collision energy: 150 % (nominal)
Resolution: 17500
Column name: XBridge C18 3.5um, 2.1x50mm, Waters
Retention time: 16.524 min
Base peak: 282.2213
Precursor m/z: 282.2216
Precursor type: [M+H]+
m/z	relative intensity	assigned
53.0387	14	C4H5+
65.0384	50	C5H5+
66.0463	14	C5H6+
77.0386	142	C6H5+
79.0542	113	C6H7+
91.0542	146	C7H7+
93.0573	303	C6H7N+
94.0651	292	C6H8N+
104.0495	10	C7H6N+
106.0651	999	C7H8N+
115.0545	64	C9H7+
117.0574	40	C8H7N+
117.0698	27	C9H9+
118.0651	190	C8H8N+
119.0729	445	C8H9N+
132.0811	30	C9H10N+
134.0964	143	C9H12N+
