Mass spectrum: Silibinin; LC-ESI-QFT; MS2; CE: 120%; R=17500; [M-H]-
Name: Silibinin
Name: Silymarin
Name: 3,5,7-trihydroxy-2-[3-(4-hydroxy-3-methoxyphenyl)-2-(hydroxymethyl)-2,3-dihydro-1,4-benzodioxin-6-yl]-2,3-dihydrochromen-4-one
Formula: C25H22O10
Exact mass: 482.121296904
SMILES: COC1=C(C=CC(=C1)C2C(OC3=C(O2)C=C(C=C3)C4C(C(=O)C5=C(C=C(C=C5O4)O)O)O)CO)O
InChI: InChI=1S/C25H22O10/c1-32-17-6-11(2-4-14(17)28)24-20(10-26)33-16-5-3-12(7-18(16)34-24)25-23(31)22(30)21-15(29)8-13(27)9-19(21)35-25/h2-9,20,23-29,31H,10H2,1H3
Instrument: Exploris 240 Orbitrap Thermo Scientific
Instrument type: LC-ESI-QFT
Ms type: MS2
Ion mode: NEGATIVE
Ionization: ESI
Fragmentation mode: HCD
Collision energy: 120 % (nominal)
Resolution: 17500
Column name: XBridge C18 3.5um, 2.1x50mm, Waters
Retention time: 6.163 min
Base peak: 481.1138
Precursor m/z: 481.114
Precursor type: [M-H]-
m/z	relative intensity	assigned
57.0345	903	C3H5O-
63.024	468	C5H3-
65.0033	999	C4HO-
67.0188	53	C4H3O-
68.9982	67	C3HO2-
81.0346	31	C5H5O-
82.006	68	C4H2O2-
83.0137	299	C4H3O2-
89.0396	60	C7H5-
93.0345	315	C6H5O-
95.0138	89	C5H3O2-
96.0217	222	C5H4O2-
107.0141	58	C6H3O2-
109.0297	42	C6H5O2-
117.0348	122	C8H5O-
121.0296	149	C7H5O2-
124.0168	73	C6H4O3-
125.0248	56	C6H5O3-
133.0294	43	C8H5O2-
135.0452	30	C8H7O2-
137.0241	44	C7H5O3-
145.0296	96	C9H5O2-
