Mass spectrum: 2-(3,4-Dihydroxyphenyl)Chroman-3,5,7-Triol; LC-ESI-QFT; MS2; CE: 150%; R=17500; [M-H]-
Name: 2-(3,4-Dihydroxyphenyl)Chroman-3,5,7-Triol
Name: 2-(3,4-dihydroxyphenyl)-3,4-dihydro-2H-1-benzopyran-3,5,7-triol
Name: 2-(3,4-dihydroxyphenyl)-3,4-dihydro-2H-chromene-3,5,7-triol
Formula: C15H14O6
Exact mass: 290.079038168
SMILES: C1C(C(OC2=CC(=CC(=C21)O)O)C3=CC(=C(C=C3)O)O)O
InChI: InChI=1S/C15H14O6/c16-8-4-11(18)9-6-13(20)15(21-14(9)5-8)7-1-2-10(17)12(19)3-7/h1-5,13,15-20H,6H2
Instrument: Exploris 240 Orbitrap Thermo Scientific
Instrument type: LC-ESI-QFT
Ms type: MS2
Ion mode: NEGATIVE
Ionization: ESI
Fragmentation mode: HCD
Collision energy: 150 % (nominal)
Resolution: 17500
Column name: XBridge C18 3.5um, 2.1x50mm, Waters
Retention time: 2.883 min
Base peak: 289.0716
Precursor m/z: 289.0718
Precursor type: [M-H]-
m/z	relative intensity	assigned
55.0189	389	C3H3O-
57.0346	631	C3H5O-
65.0033	175	C4HO-
67.019	236	C4H3O-
69.0345	478	C4H5O-
83.0138	378	C4H3O2-
93.0347	270	C6H5O-
97.0292	176	C5H5O2-
108.0216	999	C6H4O2-
109.0294	451	C6H5O2-
