Mass spectrum: Silibinin; LC-ESI-QFT; MS2; CE: 150%; R=17500; [M-H]-
Name: Silibinin
Name: Silymarin
Name: 3,5,7-trihydroxy-2-[3-(4-hydroxy-3-methoxyphenyl)-2-(hydroxymethyl)-2,3-dihydro-1,4-benzodioxin-6-yl]-2,3-dihydrochromen-4-one
Formula: C25H22O10
Exact mass: 482.121296904
SMILES: COC1=C(C=CC(=C1)C2C(OC3=C(O2)C=C(C=C3)C4C(C(=O)C5=C(C=C(C=C5O4)O)O)O)CO)O
InChI: InChI=1S/C25H22O10/c1-32-17-6-11(2-4-14(17)28)24-20(10-26)33-16-5-3-12(7-18(16)34-24)25-23(31)22(30)21-15(29)8-13(27)9-19(21)35-25/h2-9,20,23-29,31H,10H2,1H3
Instrument: Exploris 240 Orbitrap Thermo Scientific
Instrument type: LC-ESI-QFT
Ms type: MS2
Ion mode: NEGATIVE
Ionization: ESI
Fragmentation mode: HCD
Collision energy: 150 % (nominal)
Resolution: 17500
Column name: XBridge C18 3.5um, 2.1x50mm, Waters
Retention time: 6.163 min
Base peak: 481.1138
Precursor m/z: 481.114
Precursor type: [M-H]-
m/z	relative intensity	assigned
57.0345	505	C3H5O-
63.024	260	C5H3-
65.0033	999	C4HO-
68.9982	110	C3HO2-
83.0138	106	C4H3O2-
89.0397	71	C7H5-
93.0344	124	C6H5O-
95.0141	48	C5H3O2-
117.0347	107	C8H5O-
