Mass spectrum: PANA; LC-ESI-QFT; MS2; CE: 45%; R=17500; [M+H]+
Name: PANA
Name: N-Phenyl-1-naphthylamine
Name: N-phenylnaphthalen-1-amine
Formula: C16H13N
Exact mass: 219.1048
SMILES: C1=CC=C(C=C1)NC2=CC=CC3=CC=CC=C32
InChI: InChI=1S/C16H13N/c1-2-9-14(10-3-1)17-16-12-6-8-13-7-4-5-11-15(13)16/h1-12,17H
Instrument: Exploris 240 Orbitrap Thermo Scientific
Instrument type: LC-ESI-QFT
Ms type: MS2
Ion mode: POSITIVE
Ionization: ESI
Fragmentation mode: HCD
Collision energy: 45 % (nominal)
Resolution: 17500
Column name: XBridge C18 3.5um, 2.1x50mm, Waters
Retention time: 11.889 min
Base peak: 220.1116
Precursor m/z: 220.1121
Precursor type: [M+H]+
m/z	relative intensity	assigned
92.0494	342	C6H6N+
128.0619	103	C10H8+
142.065	148	C10H8N+
143.0728	61	C10H9N+
202.0775	140	C16H10+
203.0847	53	C16H11+
205.0885	66	C15H11N+
220.1119	999	C16H14N+
