Mass spectrum: Apigenin; LC-ESI-QFT; MS2; CE: 60%; R=17500; [M+H]+
Name: Apigenin
Name: 5,7-dihydroxy-2-(4-hydroxyphenyl)chromen-4-one
Formula: C15H10O5
Exact mass: 270.0528234
SMILES: C1=CC(=CC=C1C2=CC(=O)C3=C(C=C(C=C3O2)O)O)O
InChI: InChI=1S/C15H10O5/c16-9-3-1-8(2-4-9)13-7-12(19)15-11(18)5-10(17)6-14(15)20-13/h1-7,16-18H
Instrument: Exploris 240 Orbitrap Thermo Scientific
Instrument type: LC-ESI-QFT
Ms type: MS2
Ion mode: POSITIVE
Ionization: ESI
Fragmentation mode: HCD
Collision energy: 60 % (nominal)
Resolution: 17500
Column name: XBridge C18 3.5um, 2.1x50mm, Waters
Retention time: 7.105 min
Base peak: 271.0597
Precursor m/z: 271.0601
Precursor type: [M+H]+
m/z	relative intensity	assigned
67.0178	17	C4H3O+
68.997	8	C3HO2+
91.0541	6	C7H7+
119.0491	72	C8H7O+
121.0282	19	C7H5O2+
145.0279	18	C9H5O2+
153.0182	188	C7H5O4+
163.0388	16	C9H7O3+
171.029	2	C7H7O5+
187.0393	4	C11H7O3+
225.0546	9	C14H9O3+
229.0496	10	C13H9O4+
243.0657	13	C14H11O4+
271.06	999	C15H11O5+
