Mass spectrum: Thymidine; LC-ESI-QFT; MS2; CE: 45%; R=17500; [M+H]+
Name: Thymidine
Name: 1-(2-Deoxypentofuranosyl)-4-hydroxy-5-methylpyrimidin-2(1H)-one
Name: 1-[4-hydroxy-5-(hydroxymethyl)oxolan-2-yl]-5-methylpyrimidine-2,4-dione
Formula: C10H14N2O5
Exact mass: 242.0902715
SMILES: CC1=CN(C(=O)NC1=O)C2CC(C(O2)CO)O
InChI: InChI=1S/C10H14N2O5/c1-5-3-12(10(16)11-9(5)15)8-2-6(14)7(4-13)17-8/h3,6-8,13-14H,2,4H2,1H3,(H,11,15,16)
Instrument: Exploris 240 Orbitrap Thermo Scientific
Instrument type: LC-ESI-QFT
Ms type: MS2
Ion mode: POSITIVE
Ionization: ESI
Fragmentation mode: HCD
Collision energy: 45 % (nominal)
Resolution: 17500
Column name: XBridge C18 3.5um, 2.1x50mm, Waters
Retention time: 2.021 min
Base peak: 132.9583
Precursor m/z: 243.0975
Precursor type: [M+H]+
m/z	relative intensity	assigned
57.0336	8	C3H5O+
69.0335	30	C4H5O+
71.0492	24	C4H7O+
73.0284	41	C3H5O2+
81.0335	30	C5H5O+
84.0445	13	C4H6NO+
99.0441	82	C5H7O2+
109.0397	7	C5H5N2O+
110.0237	33	C5H4NO2+
117.0547	105	C5H9O3+
127.0502	999	C5H7N2O2+
