Mass spectrum: Apigenin; LC-ESI-QFT; MS2; CE: 150%; R=17500; [M+H]+
Name: Apigenin
Name: 5,7-dihydroxy-2-(4-hydroxyphenyl)chromen-4-one
Formula: C15H10O5
Exact mass: 270.0528234
SMILES: C1=CC(=CC=C1C2=CC(=O)C3=C(C=C(C=C3O2)O)O)O
InChI: InChI=1S/C15H10O5/c16-9-3-1-8(2-4-9)13-7-12(19)15-11(18)5-10(17)6-14(15)20-13/h1-7,16-18H
Instrument: Exploris 240 Orbitrap Thermo Scientific
Instrument type: LC-ESI-QFT
Ms type: MS2
Ion mode: POSITIVE
Ionization: ESI
Fragmentation mode: HCD
Collision energy: 150 % (nominal)
Resolution: 17500
Column name: XBridge C18 3.5um, 2.1x50mm, Waters
Retention time: 7.105 min
Base peak: 271.0597
Precursor m/z: 271.0601
Precursor type: [M+H]+
m/z	relative intensity	assigned
50.0151	18	C4H2+
51.0229	47	C4H3+
53.0022	25	C3HO+
53.0385	19	C4H5+
55.0179	53	C3H3O+
63.0228	184	C5H3+
65.0385	633	C5H5+
67.0178	94	C4H3O+
68.997	999	C3HO2+
69.0334	80	C4H5O+
75.023	25	C6H3+
77.0386	35	C6H5+
79.0178	44	C5H3O+
89.0386	110	C7H5+
91.0542	244	C7H7+
92.9972	14	C5HO2+
115.0542	116	C9H7+
139.0541	60	C11H7+
145.0281	33	C9H5O2+
153.0182	25	C7H5O4+
