Mass spectrum: BHT-OH; LC-ESI-QFT; MS2; CE: 15%; R=17500; [M+H]+
Name: BHT-OH
Name: 2,6-ditert-butyl-4-hydroxy-4-methylcyclohexa-2,5-dien-1-one
Formula: C15H24O2
Exact mass: 236.17763
SMILES: CC1(C=C(C(=O)C(=C1)C(C)(C)C)C(C)(C)C)O
InChI: InChI=1S/C15H24O2/c1-13(2,3)10-8-15(7,17)9-11(12(10)16)14(4,5)6/h8-9,17H,1-7H3
Instrument: Exploris 240 Orbitrap Thermo Scientific
Instrument type: LC-ESI-QFT
Ms type: MS2
Ion mode: POSITIVE
Ionization: ESI
Fragmentation mode: HCD
Collision energy: 15 % (nominal)
Resolution: 17500
Column name: XBridge C18 3.5um, 2.1x50mm, Waters
Retention time: 10.618 min
Base peak: 237.1847
Precursor m/z: 237.1849
Precursor type: [M+H]+
m/z	relative intensity	assigned
83.0855	45	C6H11+
121.1011	24	C9H13+
123.0807	3	C8H11O+
137.0961	4	C9H13O+
155.1065	13	C9H15O2+
179.1432	4	C12H19O+
181.1222	383	C11H17O2+
191.179	5	C14H23+
195.174	6	C13H23O+
209.1904	6	C14H25O+
219.1744	5	C15H23O+
237.1848	999	C15H25O2+
