Mass spectrum: Hexadecyl gallate; LC-ESI-QFT; MS2; CE: 60%; R=17500; [M-H]-
Name: Hexadecyl gallate
Name: Cetyl gallate
Name: hexadecyl 3,4,5-trihydroxybenzoate
Formula: C23H38O5
Exact mass: 394.271924316
SMILES: CCCCCCCCCCCCCCCCOC(=O)C1=CC(=C(C(=C1)O)O)O
InChI: InChI=1S/C23H38O5/c1-2-3-4-5-6-7-8-9-10-11-12-13-14-15-16-28-23(27)19-17-20(24)22(26)21(25)18-19/h17-18,24-26H,2-16H2,1H3
Instrument: Exploris 240 Orbitrap Thermo Scientific
Instrument type: LC-ESI-QFT
Ms type: MS2
Ion mode: NEGATIVE
Ionization: ESI
Fragmentation mode: HCD
Collision energy: 60 % (nominal)
Resolution: 17500
Column name: XBridge C18 3.5um, 2.1x50mm, Waters
Retention time: 17.946 min
Base peak: 393.2644
Precursor m/z: 393.2646
Precursor type: [M-H]-
m/z	relative intensity	assigned
78.011	13	C5H2O-
81.0345	7	C5H5O-
82.0061	8	C4H2O2-
83.0138	4	C4H3O2-
86.001	8	C3H2O3-
110.0011	6	C5H2O3-
111.009	31	C5H3O3-
123.0087	31	C6H3O3-
124.0166	999	C6H4O3-
125.0244	345	C6H5O3-
127.0037	11	C5H3O4-
136.9884	23	C6HO4-
139.0036	33	C6H3O4-
140.0115	56	C6H4O4-
151.0037	11	C7H3O4-
168.0065	50	C7H4O5-
169.0142	138	C7H5O5-
393.2646	70	C23H37O5-
