Mass spectrum: AO4703; LC-ESI-QFT; MS2; CE: 150%; R=17500; [M+H]+
Name: AO4703
Name: 2,6-ditert-butyl-4-[(dimethylamino)methyl]phenol
Formula: C17H29NO
Exact mass: 263.2249145
SMILES: CC(C)(C)C1=CC(=CC(=C1O)C(C)(C)C)CN(C)C
InChI: InChI=1S/C17H29NO/c1-16(2,3)13-9-12(11-18(7)8)10-14(15(13)19)17(4,5)6/h9-10,19H,11H2,1-8H3
Instrument: Exploris 240 Orbitrap Thermo Scientific
Instrument type: LC-ESI-QFT
Ms type: MS2
Ion mode: POSITIVE
Ionization: ESI
Fragmentation mode: HCD
Collision energy: 150 % (nominal)
Resolution: 17500
Column name: XBridge C18 3.5um, 2.1x50mm, Waters
Retention time: 7.272 min
Base peak: 264.232
Precursor m/z: 264.2322
Precursor type: [M+H]+
m/z	relative intensity	assigned
51.023	51	C4H3+
53.0385	148	C4H5+
55.0542	104	C4H7+
65.0387	237	C5H5+
67.0543	109	C5H7+
77.0386	312	C6H5+
78.0465	37	C6H6+
79.0543	375	C6H7+
81.0701	45	C6H9+
91.0543	999	C7H7+
93.0698	58	C7H9+
95.0494	103	C6H7O+
103.0543	159	C8H7+
104.0622	44	C8H8+
105.0699	392	C8H9+
115.0542	246	C9H7+
116.0622	82	C9H8+
117.0699	202	C9H9+
119.0856	75	C9H11+
128.0619	200	C10H8+
129.0699	173	C10H9+
130.0777	74	C10H10+
131.0855	59	C10H11+
141.0697	53	C11H9+
145.1014	35	C11H13+
155.0859	25	C12H11+
