Mass spectrum: 2'-Deoxyadenosine; LC-ESI-QFT; MS2; CE: 15%; R=17500; [M+H]+
Name: 2'-Deoxyadenosine
Name: 5-(6-aminopurin-9-yl)-2-(hydroxymethyl)oxolan-3-ol
Formula: C10H13N5O3
Exact mass: 251.1018393
SMILES: C1C(C(OC1N2C=NC3=C(N=CN=C32)N)CO)O
InChI: InChI=1S/C10H13N5O3/c11-9-8-10(13-3-12-9)15(4-14-8)7-1-5(17)6(2-16)18-7/h3-7,16-17H,1-2H2,(H2,11,12,13)
Instrument: Exploris 240 Orbitrap Thermo Scientific
Instrument type: LC-ESI-QFT
Ms type: MS2
Ion mode: POSITIVE
Ionization: ESI
Fragmentation mode: HCD
Collision energy: 15 % (nominal)
Resolution: 17500
Column name: XBridge C18 3.5um, 2.1x50mm, Waters
Retention time: 1.488 min
Base peak: 252.109
Precursor m/z: 252.1091
Precursor type: [M+H]+
m/z	relative intensity	assigned
117.0545	14	C5H9O3+
136.0617	999	C5H6N5+
252.1091	905	C10H14N5O3+
