Mass spectrum: AO ZKF; LC-ESI-QFT; MS2; CE: 75%; R=17500; [M+H]+
Name: AO ZKF
Name: 2,2'-Methylenebis(6-cyclohexyl-p-cresol)
Name: 2-cyclohexyl-6-[(3-cyclohexyl-2-hydroxy-5-methylphenyl)methyl]-4-methylphenol
Formula: C27H36O2
Exact mass: 392.2715304
SMILES: CC1=CC(=C(C(=C1)C2CCCCC2)O)CC3=C(C(=CC(=C3)C)C4CCCCC4)O
InChI: InChI=1S/C27H36O2/c1-18-13-22(26(28)24(15-18)20-9-5-3-6-10-20)17-23-14-19(2)16-25(27(23)29)21-11-7-4-8-12-21/h13-16,20-21,28-29H,3-12,17H2,1-2H3
Instrument: Exploris 240 Orbitrap Thermo Scientific
Instrument type: LC-ESI-QFT
Ms type: MS2
Ion mode: POSITIVE
Ionization: ESI
Fragmentation mode: HCD
Collision energy: 75 % (nominal)
Resolution: 17500
Column name: XBridge C18 3.5um, 2.1x50mm, Waters
Retention time: 18.097 min
Base peak: 203.143
Precursor m/z: 393.2788
Precursor type: [M+H]+
m/z	relative intensity	assigned
53.0386	34	C4H5+
55.0542	64	C4H7+
67.0542	31	C5H7+
79.0542	381	C6H7+
81.0698	531	C6H9+
91.0542	219	C7H7+
93.07	63	C7H9+
105.0697	239	C8H9+
107.0858	187	C8H11+
119.0857	80	C9H11+
121.0648	172	C8H9O+
133.0648	125	C9H9O+
135.0804	999	C9H11O+
147.0804	45	C10H11O+
161.0956	50	C11H13O+
203.1433	117	C14H19O+
