Mass spectrum: Desoxyguanosine; LC-ESI-QFT; MS2; CE: 180%; R=17500; [M+H]+
Name: Desoxyguanosine
Name: 2-amino-9-[4-hydroxy-5-(hydroxymethyl)oxolan-2-yl]-1H-purin-6-one
Formula: C10H13N5O4
Exact mass: 267.0967539
SMILES: C1C(C(OC1N2C=NC3=C2N=C(NC3=O)N)CO)O
InChI: InChI=1S/C10H13N5O4/c11-10-13-8-7(9(18)14-10)12-3-15(8)6-1-4(17)5(2-16)19-6/h3-6,16-17H,1-2H2,(H3,11,13,14,18)
Instrument: Exploris 240 Orbitrap Thermo Scientific
Instrument type: LC-ESI-QFT
Ms type: MS2
Ion mode: POSITIVE
Ionization: ESI
Fragmentation mode: HCD
Collision energy: 180 % (nominal)
Resolution: 17500
Column name: XBridge C18 3.5um, 2.1x50mm, Waters
Retention time: 6.504 min
Base peak: 186.0913
Precursor m/z: 186.0913
Precursor type: [M+H]+
m/z	relative intensity	assigned
51.023	30	C4H3+
53.0386	166	C4H5+
54.0339	51	C3H4N+
54.0465	14	C4H6+
65.0386	146	C5H5+
66.0464	111	C5H6+
68.0132	13	C3H2NO+
80.0495	999	C5H6N+
81.0336	85	C5H5O+
81.0573	40	C5H7N+
82.0412	26	C5H6O+
92.0497	29	C6H6N+
93.0575	70	C6H7N+
108.0443	98	C6H6NO+
109.0522	129	C6H7NO+
