Mass spectrum: AO44B25; LC-ESI-QFT; MS2; CE: 60%; R=17500; [M+H]+
Name: AO44B25
Name: Santowhite
Name: 2-tert-butyl-4-[1-(5-tert-butyl-4-hydroxy-2-methylphenyl)butyl]-5-methylphenol
Formula: C26H38O2
Exact mass: 382.287180456
SMILES: CCCC(C1=CC(=C(C=C1C)O)C(C)(C)C)C2=CC(=C(C=C2C)O)C(C)(C)C
InChI: InChI=1S/C26H38O2/c1-10-11-18(19-14-21(25(4,5)6)23(27)12-16(19)2)20-15-22(26(7,8)9)24(28)13-17(20)3/h12-15,18,27-28H,10-11H2,1-9H3
Instrument: Exploris 240 Orbitrap Thermo Scientific
Instrument type: LC-ESI-QFT
Ms type: MS2
Ion mode: POSITIVE
Ionization: ESI
Fragmentation mode: HCD
Collision energy: 60 % (nominal)
Resolution: 17500
Column name: XBridge C18 3.5um, 2.1x50mm, Waters
Retention time: 16.038 min
Base peak: 219.1742
Precursor m/z: 383.2945
Precursor type: [M+H]+
m/z	relative intensity	assigned
57.0699	125	C4H9+
105.0698	25	C8H9+
121.0649	63	C8H9O+
161.096	213	C11H13O+
177.1274	999	C12H17O+
339.2318	40	C23H31O2+
