Mass spectrum: Naringenin; LC-ESI-QFT; MS2; CE: 60%; R=17500; [M+H]+
Name: Naringenin
Name: (+-)-Naringenin
Name: 5,7-dihydroxy-2-(4-hydroxyphenyl)-2,3-dihydrochromen-4-one
Formula: C15H12O5
Exact mass: 272.0684735
SMILES: C1C(OC2=CC(=CC(=C2C1=O)O)O)C3=CC=C(C=C3)O
InChI: InChI=1S/C15H12O5/c16-9-3-1-8(2-4-9)13-7-12(19)15-11(18)5-10(17)6-14(15)20-13/h1-6,13,16-18H,7H2
Instrument: Exploris 240 Orbitrap Thermo Scientific
Instrument type: LC-ESI-QFT
Ms type: MS2
Ion mode: POSITIVE
Ionization: ESI
Fragmentation mode: HCD
Collision energy: 60 % (nominal)
Resolution: 17500
Column name: XBridge C18 3.5um, 2.1x50mm, Waters
Retention time: 6.351 min
Base peak: 273.0755
Precursor m/z: 273.0757
Precursor type: [M+H]+
m/z	relative intensity	assigned
67.0179	12	C4H3O+
68.9971	8	C3HO2+
69.0334	8	C4H5O+
91.0543	35	C7H7+
95.0491	12	C6H7O+
97.0282	4	C5H5O2+
107.049	23	C7H7O+
119.0491	195	C8H7O+
123.0439	43	C7H7O2+
147.044	380	C9H7O2+
151.0383	5	C8H7O3+
153.0182	999	C7H5O4+
179.0336	5	C9H7O4+
189.054	4	C11H9O3+
273.0758	10	C15H13O5+
