Mass spectrum: UV-PS; LC-ESI-QFT; MS2; CE: 60%; R=17500; [M+H]+
Name: UV-PS
Name: 2-(benzotriazol-2-yl)-4-tert-butylphenol
Formula: C16H17N3O
Exact mass: 267.1371622
SMILES: CC(C)(C)C1=CC(=C(C=C1)O)N2N=C3C=CC=CC3=N2
InChI: InChI=1S/C16H17N3O/c1-16(2,3)11-8-9-15(20)14(10-11)19-17-12-6-4-5-7-13(12)18-19/h4-10,20H,1-3H3
Instrument: Exploris 240 Orbitrap Thermo Scientific
Instrument type: LC-ESI-QFT
Ms type: MS2
Ion mode: POSITIVE
Ionization: ESI
Fragmentation mode: HCD
Collision energy: 60 % (nominal)
Resolution: 17500
Column name: XBridge C18 3.5um, 2.1x50mm, Waters
Retention time: 15.802 min
Base peak: 268.1445
Precursor m/z: 268.1444
Precursor type: [M+H]+
m/z	relative intensity	assigned
57.0699	999	C4H9+
65.0387	35	C5H5+
91.0416	14	C6H5N+
91.054	10	C7H7+
92.0495	19	C6H6N+
93.0336	51	C6H5O+
105.0702	6	C8H9+
109.0649	37	C7H9O+
120.0555	58	C6H6N3+
121.0648	33	C8H9O+
128.0626	8	C10H8+
129.0698	48	C10H9+
134.0725	10	C9H10O+
156.0806	30	C11H10N+
166.0651	57	C12H8N+
167.0733	13	C12H9N+
183.067	39	C12H9NO+
210.092	16	C14H12NO+
212.082	813	C12H10N3O+
253.1222	12	C15H15N3O+
268.1447	193	C16H18N3O+
