Mass spectrum: Apigenin; LC-ESI-QFT; MS2; CE: 180%; R=17500; [M+H]+
Name: Apigenin
Name: 5,7-dihydroxy-2-(4-hydroxyphenyl)chromen-4-one
Formula: C15H10O5
Exact mass: 270.0528234
SMILES: C1=CC(=CC=C1C2=CC(=O)C3=C(C=C(C=C3O2)O)O)O
InChI: InChI=1S/C15H10O5/c16-9-3-1-8(2-4-9)13-7-12(19)15-11(18)5-10(17)6-14(15)20-13/h1-7,16-18H
Instrument: Exploris 240 Orbitrap Thermo Scientific
Instrument type: LC-ESI-QFT
Ms type: MS2
Ion mode: POSITIVE
Ionization: ESI
Fragmentation mode: HCD
Collision energy: 180 % (nominal)
Resolution: 17500
Column name: XBridge C18 3.5um, 2.1x50mm, Waters
Retention time: 7.105 min
Base peak: 271.0597
Precursor m/z: 271.0601
Precursor type: [M+H]+
m/z	relative intensity	assigned
50.0151	25	C4H2+
51.0229	113	C4H3+
53.0022	54	C3HO+
55.0179	37	C3H3O+
63.0229	315	C5H3+
65.0385	569	C5H5+
67.018	38	C4H3O+
68.997	999	C3HO2+
75.0229	58	C6H3+
77.0385	38	C6H5+
79.0179	18	C5H3O+
89.0384	103	C7H5+
91.0541	71	C7H7+
115.0538	71	C9H7+
139.0545	76	C11H7+
