Mass spectrum: Aureusidin; LC-ESI-QFT; MS2; CE: 45%; R=17500; [M+H]+
Name: Aureusidin
Name: 2-[(3,4-Dihydroxyphenyl)methylidene]-4,6-dihydroxy-3-benzofuranone
Name: 2-[(3,4-dihydroxyphenyl)methylidene]-4,6-dihydroxy-1-benzofuran-3-one
Formula: C15H10O6
Exact mass: 286.047738
SMILES: C1=CC(=C(C=C1C=C2C(=O)C3=C(C=C(C=C3O2)O)O)O)O
InChI: InChI=1S/C15H10O6/c16-8-5-11(19)14-12(6-8)21-13(15(14)20)4-7-1-2-9(17)10(18)3-7/h1-6,16-19H
Instrument: Exploris 240 Orbitrap Thermo Scientific
Instrument type: LC-ESI-QFT
Ms type: MS2
Ion mode: POSITIVE
Ionization: ESI
Fragmentation mode: HCD
Collision energy: 45 % (nominal)
Resolution: 17500
Column name: XBridge C18 3.5um, 2.1x50mm, Waters
Retention time: 5.270 min
Base peak: 287.0547
Precursor m/z: 287.055
Precursor type: [M+H]+
m/z	relative intensity	assigned
105.0336	18	C7H5O+
107.0488	7	C7H7O+
111.0077	4	C5H3O3+
123.0078	9	C6H3O3+
133.0282	6	C8H5O2+
135.0438	9	C8H7O2+
149.0233	70	C8H5O3+
153.0182	321	C7H5O4+
161.0233	59	C9H5O3+
165.0181	10	C8H5O4+
175.0391	16	C10H7O3+
189.0553	12	C11H9O3+
191.0338	12	C10H7O4+
197.0593	14	C13H9O2+
199.0393	6	C12H7O3+
203.07	32	C12H11O3+
213.0544	59	C13H9O3+
217.0494	24	C12H9O4+
231.065	200	C13H11O4+
241.0495	214	C14H9O4+
259.0604	63	C14H11O5+
269.0443	102	C15H9O5+
287.0549	999	C15H11O6+
