Mass spectrum: Silibinin; LC-ESI-QFT; MS2; CE: 75%; R=17500; [M+H]+
Name: Silibinin
Name: Silymarin
Name: 3,5,7-trihydroxy-2-[3-(4-hydroxy-3-methoxyphenyl)-2-(hydroxymethyl)-2,3-dihydro-1,4-benzodioxin-6-yl]-2,3-dihydrochromen-4-one
Formula: C25H22O10
Exact mass: 482.1212969
SMILES: COC1=C(C=CC(=C1)C2C(OC3=C(O2)C=C(C=C3)C4C(C(=O)C5=C(C=C(C=C5O4)O)O)O)CO)O
InChI: InChI=1S/C25H22O10/c1-32-17-6-11(2-4-14(17)28)24-20(10-26)33-16-5-3-12(7-18(16)34-24)25-23(31)22(30)21-15(29)8-13(27)9-19(21)35-25/h2-9,20,23-29,31H,10H2,1H3
Instrument: Exploris 240 Orbitrap Thermo Scientific
Instrument type: LC-ESI-QFT
Ms type: MS2
Ion mode: POSITIVE
Ionization: ESI
Fragmentation mode: HCD
Collision energy: 75 % (nominal)
Resolution: 17500
Column name: XBridge C18 3.5um, 2.1x50mm, Waters
Retention time: 6.153 min
Base peak: 483.1283
Precursor m/z: 483.1286
Precursor type: [M+H]+
m/z	relative intensity	assigned
53.0386	27	C4H5+
55.0179	50	C3H3O+
65.0386	195	C5H5+
67.0179	97	C4H3O+
68.997	131	C3HO2+
69.0336	83	C4H5O+
77.0385	78	C6H5+
79.0543	56	C6H7+
81.0337	30	C5H5O+
83.0128	20	C4H3O2+
89.0386	78	C7H5+
91.0542	283	C7H7+
93.0337	76	C6H5O+
94.0413	26	C6H6O+
95.0488	28	C6H7O+
97.0285	38	C5H5O2+
102.0463	159	C8H6+
103.0542	313	C8H7+
105.0335	102	C7H5O+
105.0699	29	C8H9+
106.0413	22	C7H6O+
107.0491	88	C7H7O+
109.0286	28	C6H5O2+
111.044	166	C6H7O2+
115.0542	46	C9H7+
117.0333	59	C8H5O+
117.0697	38	C9H9+
118.0413	29	C8H6O+
119.0491	223	C8H7O+
121.0285	430	C7H5O2+
121.0647	67	C8H9O+
122.0365	72	C7H6O2+
123.0443	53	C7H7O2+
124.052	49	C7H8O2+
128.0621	25	C10H8+
130.0413	150	C9H6O+
131.0492	242	C9H7O+
133.0283	199	C8H5O2+
133.0646	20	C9H9O+
134.0359	44	C8H6O2+
135.0441	172	C8H7O2+
137.0596	349	C8H9O2+
139.0391	132	C7H7O3+
141.0697	26	C11H9+
145.065	48	C10H9O+
146.0364	93	C9H6O2+
147.0441	456	C9H7O2+
149.0232	424	C8H5O3+
149.0595	193	C9H9O2+
150.0675	143	C9H10O2+
152.0627	31	C12H8+
153.0182	999	C7H5O4+
155.049	50	C11H7O+
157.0646	58	C11H9O+
159.044	57	C10H7O2+
161.0596	81	C10H9O2+
162.0675	94	C10H10O2+
165.0699	44	C13H9+
167.0334	28	C8H7O4+
171.044	18	C11H7O2+
173.0594	95	C11H9O2+
177.07	24	C14H9+
181.0648	36	C13H9O+
183.0437	29	C12H7O2+
185.0596	55	C12H9O2+
187.0394	25	C11H7O3+
195.0284	113	C9H7O5+
195.0799	27	C14H11O+
197.0605	51	C13H9O2+
201.0545	46	C12H9O3+
205.0647	39	C15H9O+
213.0547	143	C13H9O3+
223.0757	15	C15H11O2+
229.0492	109	C13H9O4+
239.0704	25	C15H11O3+
242.0572	35	C14H10O4+
