Mass spectrum: 4HR; LC-ESI-QFT; MS2; CE: 90%; R=17500; [M+H]+
Name: 4HR
Name: Hexylresorcinol
Name: 4-hexylbenzene-1,3-diol
Formula: C12H18O2
Exact mass: 194.1307
SMILES: CCCCCCC1=C(C=C(C=C1)O)O
InChI: InChI=1S/C12H18O2/c1-2-3-4-5-6-10-7-8-11(13)9-12(10)14/h7-9,13-14H,2-6H2,1H3
Instrument: Exploris 240 Orbitrap Thermo Scientific
Instrument type: LC-ESI-QFT
Ms type: MS2
Ion mode: POSITIVE
Ionization: ESI
Fragmentation mode: HCD
Collision energy: 90 % (nominal)
Resolution: 17500
Column name: XBridge C18 3.5um, 2.1x50mm, Waters
Retention time: 10.285 min
Base peak: 132.9581
Precursor m/z: 195.138
Precursor type: [M+H]+
m/z	relative intensity	assigned
57.0699	999	C4H9+
59.0492	185	C3H7O+
65.0386	510	C5H5+
93.0336	203	C6H5O+
111.044	963	C6H7O2+
