Mass spectrum: TPHP; LC-ESI-QFT; MS2; CE: 75%; R=17500; [M+H]+
Name: TPHP
Name: triphenyl phosphate
Formula: C18H15O4P
Exact mass: 326.0708
SMILES: C1=CC=C(C=C1)OP(=O)(OC2=CC=CC=C2)OC3=CC=CC=C3
InChI: InChI=1S/C18H15O4P/c19-23(20-16-10-4-1-5-11-16,21-17-12-6-2-7-13-17)22-18-14-8-3-9-15-18/h1-15H
Instrument: Exploris 240 Orbitrap Thermo Scientific
Instrument type: LC-ESI-QFT
Ms type: MS2
Ion mode: POSITIVE
Ionization: ESI
Fragmentation mode: HCD
Collision energy: 75 % (nominal)
Resolution: 17500
Column name: XBridge C18 3.5um, 2.1x50mm, Waters
Retention time: 11.247 min
Base peak: 327.0777
Precursor m/z: 327.0781
Precursor type: [M+H]+
m/z	relative intensity	assigned
51.0229	108	C4H3+
53.0385	91	C4H5+
77.0386	366	C6H5+
95.0491	851	C6H7O+
152.062	999	C12H8+
153.0697	229	C12H9+
168.0568	328	C12H8O+
169.0646	90	C12H9O+
202.0777	328	C16H10+
203.0835	80	C9H16O3P+
215.0258	98	C12H8O2P+
228.093	98	C18H12+
233.0361	200	C12H10O3P+
251.0466	75	C12H12O4P+
