Mass spectrum: Cis-Dihydroanatoxin-A; LC-ESI-QFT; MS2; CE: 75%; R=17500; [M+H]+
Name: Cis-Dihydroanatoxin-A
Name: 1-[(1R,2S,6R)-9-azabicyclo[4.2.1]nonan-2-yl]ethanone
Formula: C10H17NO
Exact mass: 167.1310142
SMILES: CC(=O)[C@H]1CCC[C@@H]2CC[C@H]1N2
InChI: InChI=1S/C10H17NO/c1-7(12)9-4-2-3-8-5-6-10(9)11-8/h8-11H,2-6H2,1H3/t8-,9-,10-/m1/s1
Instrument: Exploris 240 Orbitrap Thermo Scientific
Instrument type: LC-ESI-QFT
Ms type: MS2
Ion mode: POSITIVE
Ionization: ESI
Fragmentation mode: HCD
Collision energy: 75 % (nominal)
Resolution: 17500
Column name: XBridge C18 3.5um, 2.1x50mm, Waters
Retention time: 1.752 min
Base peak: 168.1382
Precursor m/z: 168.1383
Precursor type: [M+H]+
m/z	relative intensity	assigned
43.0178	902	C2H3O+
44.0494	45	C2H6N+
55.0542	51	C4H7+
56.0495	934	C3H6N+
59.049	49	C3H7O+
67.0542	319	C5H7+
70.0651	107	C4H8N+
71.0491	74	C4H7O+
77.0384	20	C6H5+
79.0543	105	C6H7+
80.0497	44	C5H6N+
81.0699	181	C6H9+
84.0808	37	C5H10N+
91.0542	152	C7H7+
93.0699	359	C7H9+
105.0698	86	C8H9+
107.0854	138	C8H11+
110.0964	151	C7H12N+
125.0963	129	C8H13O+
133.1013	78	C10H13+
150.1278	33	C10H16N+
168.1382	999	C10H18NO+
