Mass spectrum: Cis-Dihydroanatoxin-A; LC-ESI-QFT; MS2; CE: 30%; R=17500; [M+H]+
Name: Cis-Dihydroanatoxin-A
Name: 1-[(1R,2S,6R)-9-azabicyclo[4.2.1]nonan-2-yl]ethanone
Formula: C10H17NO
Exact mass: 167.1310142
SMILES: CC(=O)[C@H]1CCC[C@@H]2CC[C@H]1N2
InChI: InChI=1S/C10H17NO/c1-7(12)9-4-2-3-8-5-6-10(9)11-8/h8-11H,2-6H2,1H3/t8-,9-,10-/m1/s1
Instrument: Exploris 240 Orbitrap Thermo Scientific
Instrument type: LC-ESI-QFT
Ms type: MS2
Ion mode: POSITIVE
Ionization: ESI
Fragmentation mode: HCD
Collision energy: 30 % (nominal)
Resolution: 17500
Column name: XBridge C18 3.5um, 2.1x50mm, Waters
Retention time: 1.752 min
Base peak: 168.1382
Precursor m/z: 168.1383
Precursor type: [M+H]+
m/z	relative intensity	assigned
93.0702	1	C7H9+
125.096	3	C8H13O+
168.1383	999	C10H18NO+
