Mass spectrum: 2-[3-(benzotriazol-2-yl)-4-hydroxyphenyl]ethyl 2-methylprop-2-enoate; LC-ESI-QFT; MS2; CE: 45%; R=17500; [M+H]+
Name: 2-[3-(benzotriazol-2-yl)-4-hydroxyphenyl]ethyl 2-methylprop-2-enoate
Formula: C18H17N3O3
Exact mass: 323.1269914
SMILES: CC(=C)C(=O)OCCC1=CC(=C(C=C1)O)N2N=C3C=CC=CC3=N2
InChI: InChI=1S/C18H17N3O3/c1-12(2)18(23)24-10-9-13-7-8-17(22)16(11-13)21-19-14-5-3-4-6-15(14)20-21/h3-8,11,22H,1,9-10H2,2H3
Instrument: Exploris 240 Orbitrap Thermo Scientific
Instrument type: LC-ESI-QFT
Ms type: MS2
Ion mode: POSITIVE
Ionization: ESI
Fragmentation mode: HCD
Collision energy: 45 % (nominal)
Resolution: 17500
Column name: XBridge C18 3.5um, 2.1x50mm, Waters
Retention time: 14.027 min
Base peak: 324.1341
Precursor m/z: 324.1343
Precursor type: [M+H]+
m/z	relative intensity	assigned
91.0542	89	C7H7+
119.0491	220	C8H7O+
120.0557	24	C6H6N3+
165.0699	7	C13H9+
167.073	16	C12H9N+
209.0836	5	C14H11NO+
223.0741	13	C13H9N3O+
238.0974	999	C14H12N3O+
