Mass spectrum: AO245; LC-ESI-QFT; MS2; CE: 60%; R=17500; [M+H]+
Name: AO245
Name: Triethylene glycol bis(3-tert-butyl-4-hydroxy-5-methylphenyl)propionate
Name: 2-[2-[2-[3-(3-tert-butyl-4-hydroxy-5-methylphenyl)propanoyloxy]ethoxy]ethoxy]ethyl 3-(3-tert-butyl-4-hydroxy-5-methylphenyl)propanoate
Formula: C34H50O8
Exact mass: 586.3506
SMILES: CC1=CC(=CC(=C1O)C(C)(C)C)CCC(=O)OCCOCCOCCOC(=O)CCC2=CC(=C(C(=C2)C)O)C(C)(C)C
InChI: InChI=1S/C34H50O8/c1-23-19-25(21-27(31(23)37)33(3,4)5)9-11-29(35)41-17-15-39-13-14-40-16-18-42-30(36)12-10-26-20-24(2)32(38)28(22-26)34(6,7)8/h19-22,37-38H,9-18H2,1-8H3
Instrument: Exploris 240 Orbitrap Thermo Scientific
Instrument type: LC-ESI-QFT
Ms type: MS2
Ion mode: POSITIVE
Ionization: ESI
Fragmentation mode: HCD
Collision energy: 60 % (nominal)
Resolution: 17500
Column name: XBridge C18 3.5um, 2.1x50mm, Waters
Retention time: 14.048 min
Base peak: 609.3396
Precursor m/z: 587.3578
Precursor type: [M+H]+
m/z	relative intensity	assigned
87.044	223	C4H7O2+
121.0647	427	C8H9O+
161.0959	191	C11H13O+
163.0752	170	C10H11O2+
177.1273	999	C12H17O+
202.0776	130	C16H10+
219.1379	77	C14H19O2+
