Mass spectrum: AO245; LC-ESI-QFT; MS2; CE: 120%; R=17500; [M+H]+
Name: AO245
Name: Triethylene glycol bis(3-tert-butyl-4-hydroxy-5-methylphenyl)propionate
Name: 2-[2-[2-[3-(3-tert-butyl-4-hydroxy-5-methylphenyl)propanoyloxy]ethoxy]ethoxy]ethyl 3-(3-tert-butyl-4-hydroxy-5-methylphenyl)propanoate
Formula: C34H50O8
Exact mass: 586.3506
SMILES: CC1=CC(=CC(=C1O)C(C)(C)C)CCC(=O)OCCOCCOCCOC(=O)CCC2=CC(=C(C(=C2)C)O)C(C)(C)C
InChI: InChI=1S/C34H50O8/c1-23-19-25(21-27(31(23)37)33(3,4)5)9-11-29(35)41-17-15-39-13-14-40-16-18-42-30(36)12-10-26-20-24(2)32(38)28(22-26)34(6,7)8/h19-22,37-38H,9-18H2,1-8H3
Instrument: Exploris 240 Orbitrap Thermo Scientific
Instrument type: LC-ESI-QFT
Ms type: MS2
Ion mode: POSITIVE
Ionization: ESI
Fragmentation mode: HCD
Collision energy: 120 % (nominal)
Resolution: 17500
Column name: XBridge C18 3.5um, 2.1x50mm, Waters
Retention time: 14.048 min
Base peak: 609.3396
Precursor m/z: 587.3578
Precursor type: [M+H]+
m/z	relative intensity	assigned
65.0386	116	C5H5+
77.0386	223	C6H5+
79.0542	331	C6H7+
87.0441	72	C4H7O2+
91.0542	986	C7H7+
95.049	363	C6H7O+
103.0542	226	C8H7+
105.0698	999	C8H9+
115.0543	245	C9H7+
117.0698	199	C9H9+
121.0647	684	C8H9O+
128.0623	144	C10H8+
133.065	122	C9H9O+
133.1011	75	C10H13+
145.0645	97	C10H9O+
147.0806	189	C10H11O+
161.096	221	C11H13O+
189.0916	101	C12H13O2+
202.0776	521	C16H10+
