Mass spectrum: Kaempferol; LC-ESI-QFT; MS2; CE: 90%; R=17500; [M-H]-
Name: Kaempferol
Name: 3,5,7-trihydroxy-2-(4-hydroxyphenyl)chromen-4-one
Formula: C15H10O6
Exact mass: 286.04773804
SMILES: C1=CC(=CC=C1C2=C(C(=O)C3=C(C=C(C=C3O2)O)O)O)O
InChI: InChI=1S/C15H10O6/c16-8-3-1-7(2-4-8)15-14(20)13(19)12-10(18)5-9(17)6-11(12)21-15/h1-6,16-18,20H
Instrument: Exploris 240 Orbitrap Thermo Scientific
Instrument type: LC-ESI-QFT
Ms type: MS2
Ion mode: NEGATIVE
Ionization: ESI
Fragmentation mode: HCD
Collision energy: 90 % (nominal)
Resolution: 17500
Column name: XBridge C18 3.5um, 2.1x50mm, Waters
Retention time: 6.967 min
Base peak: 285.0403
Precursor m/z: 285.0405
Precursor type: [M-H]-
m/z	relative intensity	assigned
63.024	480	C5H3-
65.0034	579	C4HO-
65.0396	57	C5H5-
67.019	112	C4H3O-
77.0396	43	C6H5-
79.0188	57	C5H3O-
83.0136	220	C4H3O2-
91.0192	137	C6H3O-
92.0269	146	C6H4O-
93.0346	999	C6H5O-
95.014	120	C5H3O2-
107.0138	150	C6H3O2-
108.0216	352	C6H4O2-
109.0299	123	C6H5O2-
115.0554	69	C9H7-
117.0345	765	C8H5O-
119.0501	81	C8H7O-
121.0294	76	C7H5O2-
123.0454	92	C7H7O2-
129.0345	60	C9H5O-
130.0428	93	C9H6O-
131.0503	146	C9H7O-
132.0219	82	C8H4O2-
133.0296	150	C8H5O2-
135.0093	94	C7H3O3-
141.0348	93	C10H5O-
143.0503	342	C10H7O-
145.0294	366	C9H5O2-
154.0425	91	C11H6O-
155.0501	127	C11H7O-
156.0584	113	C11H8O-
157.0299	184	C10H5O2-
158.0373	187	C10H6O2-
159.045	348	C10H7O2-
167.0509	147	C12H7O-
171.0453	135	C11H7O2-
173.0245	54	C10H5O3-
182.0376	150	C12H6O2-
183.0448	234	C12H7O2-
184.0532	110	C12H8O2-
185.0611	81	C12H9O2-
187.0406	199	C11H7O3-
210.0317	92	C13H6O3-
227.0353	206	C13H7O4-
239.0345	118	C14H7O4-
