Mass spectrum: 2,6-Di-Tert-Butyl-4-Nitrophenol; LC-ESI-QFT; MS2; CE: 60%; R=17500; [M-H]-
Name: 2,6-Di-Tert-Butyl-4-Nitrophenol
Name: 2,6-ditert-butyl-4-nitrophenol
Formula: C14H21NO3
Exact mass: 251.152143532
SMILES: CC(C)(C)C1=CC(=CC(=C1O)C(C)(C)C)[N+](=O)[O-]
InChI: InChI=1S/C14H21NO3/c1-13(2,3)10-7-9(15(17)18)8-11(12(10)16)14(4,5)6/h7-8,16H,1-6H3
Instrument: Exploris 240 Orbitrap Thermo Scientific
Instrument type: LC-ESI-QFT
Ms type: MS2
Ion mode: NEGATIVE
Ionization: ESI
Fragmentation mode: HCD
Collision energy: 60 % (nominal)
Resolution: 17500
Column name: XBridge C18 3.5um, 2.1x50mm, Waters
Retention time: 13.496 min
Base peak: 250.1448
Precursor m/z: 250.1449
Precursor type: [M-H]-
m/z	relative intensity	assigned
205.1232	8	C13H17O2-
220.1465	15	C14H20O2-
234.1139	31	C13H16NO3-
235.1214	41	C13H17NO3-
250.1448	999	C14H20NO3-
