Mass spectrum: Silibinin; LC-ESI-QFT; MS2; CE: 90%; R=17500; [M-H]-
Name: Silibinin
Name: Silymarin
Name: 3,5,7-trihydroxy-2-[3-(4-hydroxy-3-methoxyphenyl)-2-(hydroxymethyl)-2,3-dihydro-1,4-benzodioxin-6-yl]-2,3-dihydrochromen-4-one
Formula: C25H22O10
Exact mass: 482.121296904
SMILES: COC1=C(C=CC(=C1)C2C(OC3=C(O2)C=C(C=C3)C4C(C(=O)C5=C(C=C(C=C5O4)O)O)O)CO)O
InChI: InChI=1S/C25H22O10/c1-32-17-6-11(2-4-14(17)28)24-20(10-26)33-16-5-3-12(7-18(16)34-24)25-23(31)22(30)21-15(29)8-13(27)9-19(21)35-25/h2-9,20,23-29,31H,10H2,1H3
Instrument: Exploris 240 Orbitrap Thermo Scientific
Instrument type: LC-ESI-QFT
Ms type: MS2
Ion mode: NEGATIVE
Ionization: ESI
Fragmentation mode: HCD
Collision energy: 90 % (nominal)
Resolution: 17500
Column name: XBridge C18 3.5um, 2.1x50mm, Waters
Retention time: 6.163 min
Base peak: 481.1138
Precursor m/z: 481.114
Precursor type: [M-H]-
m/z	relative intensity	assigned
57.0345	999	C3H5O-
63.024	428	C5H3-
65.0032	630	C4HO-
68.998	38	C3HO2-
81.0344	50	C5H5O-
82.0062	44	C4H2O2-
83.0137	451	C4H3O2-
93.0345	256	C6H5O-
95.0137	71	C5H3O2-
96.0216	484	C5H4O2-
107.0138	244	C6H3O2-
107.0504	38	C7H7O-
108.0217	82	C6H4O2-
109.0293	95	C6H5O2-
117.035	76	C8H5O-
119.0139	56	C7H3O2-
119.0501	36	C8H7O-
121.0293	409	C7H5O2-
122.0374	44	C7H6O2-
123.0455	66	C7H7O2-
124.0164	619	C6H4O3-
125.0243	593	C6H5O3-
131.0504	35	C9H7O-
133.0293	54	C8H5O2-
135.0453	86	C8H7O2-
137.0243	127	C7H5O3-
139.0401	35	C7H7O3-
143.0501	43	C10H7O-
145.0296	145	C9H5O2-
146.0371	202	C9H6O2-
147.0454	80	C9H7O2-
149.0245	60	C8H5O3-
150.0324	34	C8H6O3-
151.0035	218	C7H3O4-
152.0114	188	C7H4O4-
158.0371	23	C10H6O2-
159.0448	111	C10H7O2-
161.0245	37	C9H5O3-
163.0394	57	C9H7O3-
164.0479	45	C9H8O3-
171.0455	36	C11H7O2-
183.0455	56	C12H7O2-
187.0401	78	C11H7O3-
211.0409	33	C13H7O3-
227.0355	64	C13H7O4-
