Mass spectrum: AO-TBM6; LC-ESI-QFT; MS2; CE: 150%; R=17500; [M-H]-
Name: AO-TBM6
Name: Santonox
Name: 2-tert-butyl-4-(5-tert-butyl-4-hydroxy-2-methylphenyl)sulfanyl-5-methylphenol
Formula: C22H30O2S
Exact mass: 358.1966512
SMILES: CC1=CC(=C(C=C1SC2=CC(=C(C=C2C)O)C(C)(C)C)C(C)(C)C)O
InChI: InChI=1S/C22H30O2S/c1-13-9-17(23)15(21(3,4)5)11-19(13)25-20-12-16(22(6,7)8)18(24)10-14(20)2/h9-12,23-24H,1-8H3
Instrument: Exploris 240 Orbitrap Thermo Scientific
Instrument type: LC-ESI-QFT
Ms type: MS2
Ion mode: NEGATIVE
Ionization: ESI
Fragmentation mode: HCD
Collision energy: 150 % (nominal)
Resolution: 17500
Column name: XBridge C18 3.5um, 2.1x50mm, Waters
Retention time: 14.763 min
Base peak: 357.1894
Precursor m/z: 357.1894
Precursor type: [M-H]-
m/z	relative intensity	assigned
93.9885	34	C5H2S-
107.0502	24	C7H7O-
109.0118	39	C6H5S-
138.0142	78	C7H6OS-
147.0822	40	C10H11O-
149.043	41	C9H9S-
151.0221	90	C8H7OS-
163.0222	198	C9H7OS-
164.0301	187	C9H8OS-
177.038	734	C10H9OS-
178.0459	999	C10H10OS-
179.0534	104	C10H11OS-
