Mass spectrum: AO1680; LC-ESI-QFT; MS2; CE: 75%; R=17500; [M+H]+
Name: AO1680
Name: Tris(2,4-ditert-butylphenyl)phosphate
Name: tris(2,4-ditert-butylphenyl) phosphate
Formula: C42H63O4P
Exact mass: 662.446397126
SMILES: CC(C)(C)C1=CC(=C(C=C1)OP(=O)(OC2=C(C=C(C=C2)C(C)(C)C)C(C)(C)C)OC3=C(C=C(C=C3)C(C)(C)C)C(C)(C)C)C(C)(C)C
InChI: InChI=1S/C42H63O4P/c1-37(2,3)28-19-22-34(31(25-28)40(10,11)12)44-47(43,45-35-23-20-29(38(4,5)6)26-32(35)41(13,14)15)46-36-24-21-30(39(7,8)9)27-33(36)42(16,17)18/h19-27H,1-18H3
Instrument: Exploris 240 Orbitrap Thermo Scientific
Instrument type: LC-ESI-QFT
Ms type: MS2
Ion mode: POSITIVE
Ionization: ESI
Fragmentation mode: HCD
Collision energy: 75 % (nominal)
Resolution: 17500
Column name: XBridge C18 3.5um, 2.1x50mm, Waters
Retention time: 22.960 min
Base peak: 685.4357
Precursor m/z: 663.4537
Precursor type: [M+H]+
m/z	relative intensity	assigned
77.0386	67	C6H5+
79.0542	12	C6H7+
91.0542	351	C7H7+
93.0699	6	C7H9+
95.049	71	C6H7O+
103.0544	8	C8H7+
104.0622	29	C8H8+
105.0699	115	C8H9+
117.0697	48	C9H9+
119.0854	71	C9H11+
131.0854	16	C10H11+
132.0933	59	C10H12+
133.101	10	C10H13+
147.1167	269	C11H15+
152.062	111	C12H8+
153.0698	279	C12H9+
168.057	6	C12H8O+
171.0807	42	C12H11O+
175.0156	53	C6H8O4P+
215.0256	103	C12H8O2P+
228.0929	67	C18H12+
229.1014	60	C18H13+
233.0362	284	C12H10O3P+
251.0468	600	C12H12O4P+
327.0782	999	C18H16O4P+
