Mass spectrum: Drometrizole; LC-ESI-QFT; MS2; CE: 120%; R=17500; [M+H]+
Name: Drometrizole
Name: 2-(benzotriazol-2-yl)-4-methylphenol
Formula: C13H11N3O
Exact mass: 225.090212
SMILES: CC1=CC(=C(C=C1)O)N2N=C3C=CC=CC3=N2
InChI: InChI=1S/C13H11N3O/c1-9-6-7-13(17)12(8-9)16-14-10-4-2-3-5-11(10)15-16/h2-8,17H,1H3
Instrument: Exploris 240 Orbitrap Thermo Scientific
Instrument type: LC-ESI-QFT
Ms type: MS2
Ion mode: POSITIVE
Ionization: ESI
Fragmentation mode: HCD
Collision energy: 120 % (nominal)
Resolution: 17500
Column name: XBridge C18 3.5um, 2.1x50mm, Waters
Retention time: 13.562 min
Base peak: 226.0974
Precursor m/z: 226.0975
Precursor type: [M+H]+
m/z	relative intensity	assigned
50.0153	17	C4H2+
51.0229	168	C4H3+
52.0308	81	C4H4+
53.0386	373	C4H5+
55.0179	27	C3H3O+
65.0386	554	C5H5+
77.0386	999	C6H5+
78.0338	25	C5H4N+
78.0465	23	C6H6+
79.0417	194	C5H5N+
79.0542	342	C6H7+
80.0497	32	C5H6N+
81.0336	20	C5H5O+
92.0495	114	C6H6N+
94.0415	42	C6H6O+
94.0652	26	C6H8N+
95.0492	368	C6H7O+
102.0465	10	C8H6+
105.0447	582	C6H5N2+
106.0528	48	C6H6N2+
107.0492	82	C7H7O+
115.0543	25	C9H7+
120.0556	147	C6H6N3+
127.0543	26	C10H7+
128.0497	27	C9H6N+
128.0624	54	C10H8+
130.0654	14	C9H8N+
152.0626	38	C12H8+
154.0652	250	C11H8N+
155.0607	53	C10H7N2+
164.0498	15	C12H6N+
167.0733	28	C12H9N+
168.0809	18	C12H10N+
181.0762	113	C12H9N2+
