Mass spectrum: AO4703; LC-ESI-QFT; MS2; CE: 120%; R=17500; [M+H]+
Name: AO4703
Name: 2,6-ditert-butyl-4-[(dimethylamino)methyl]phenol
Formula: C17H29NO
Exact mass: 263.2249145
SMILES: CC(C)(C)C1=CC(=CC(=C1O)C(C)(C)C)CN(C)C
InChI: InChI=1S/C17H29NO/c1-16(2,3)13-9-12(11-18(7)8)10-14(15(13)19)17(4,5)6/h9-10,19H,11H2,1-8H3
Instrument: Exploris 240 Orbitrap Thermo Scientific
Instrument type: LC-ESI-QFT
Ms type: MS2
Ion mode: POSITIVE
Ionization: ESI
Fragmentation mode: HCD
Collision energy: 120 % (nominal)
Resolution: 17500
Column name: XBridge C18 3.5um, 2.1x50mm, Waters
Retention time: 7.272 min
Base peak: 264.232
Precursor m/z: 264.2322
Precursor type: [M+H]+
m/z	relative intensity	assigned
53.0386	104	C4H5+
55.0542	245	C4H7+
57.07	72	C4H9+
65.0387	116	C5H5+
67.0542	232	C5H7+
69.0699	75	C5H9+
77.0386	176	C6H5+
79.0542	538	C6H7+
81.0698	156	C6H9+
91.0543	999	C7H7+
93.0702	262	C7H9+
95.0489	52	C6H7O+
103.0544	142	C8H7+
104.062	49	C8H8+
105.0699	785	C8H9+
107.0854	125	C8H11+
115.0541	110	C9H7+
117.0699	260	C9H9+
119.0855	381	C9H11+
121.1009	109	C9H13+
128.0621	104	C10H8+
129.0698	188	C10H9+
130.0781	83	C10H10+
131.0855	236	C10H11+
133.065	33	C9H9O+
133.1012	185	C10H13+
141.0705	30	C11H9+
143.0857	58	C11H11+
145.0651	81	C10H9O+
145.1013	262	C11H13+
147.0804	116	C10H11O+
155.0856	98	C12H11+
159.0801	37	C11H11O+
161.0966	42	C11H13O+
173.096	68	C12H13O+
