Mass spectrum: Bis(4-Octylphenyl)Amine; LC-ESI-QFT; MS2; CE: 60%; R=17500; [M+H]+
Name: Bis(4-Octylphenyl)Amine
Name: 4-octyl-N-(4-octylphenyl)aniline
Formula: C28H43N
Exact mass: 393.3395504
SMILES: CCCCCCCCC1=CC=C(C=C1)NC2=CC=C(C=C2)CCCCCCCC
InChI: InChI=1S/C28H43N/c1-3-5-7-9-11-13-15-25-17-21-27(22-18-25)29-28-23-19-26(20-24-28)16-14-12-10-8-6-4-2/h17-24,29H,3-16H2,1-2H3
Instrument: Exploris 240 Orbitrap Thermo Scientific
Instrument type: LC-ESI-QFT
Ms type: MS2
Ion mode: POSITIVE
Ionization: ESI
Fragmentation mode: HCD
Collision energy: 60 % (nominal)
Resolution: 17500
Column name: XBridge C18 3.5um, 2.1x50mm, Waters
Retention time: 22.369 min
Base peak: 394.3466
Precursor m/z: 394.3468
Precursor type: [M+H]+
m/z	relative intensity	assigned
57.0699	71	C4H9+
71.0855	22	C5H11+
91.0546	9	C7H7+
92.0494	100	C6H6N+
106.0651	999	C7H8N+
120.0811	15	C8H10N+
169.0889	18	C12H11N+
170.0964	63	C12H12N+
182.0965	261	C13H12N+
183.1049	36	C13H13N+
205.1826	21	C14H23N+
281.2136	11	C20H27N+
282.2221	72	C20H28N+
308.2381	11	C22H30N+
394.3472	442	C28H44N+
