Mass spectrum: BHT-OH; LC-ESI-QFT; MS2; CE: 30%; R=17500; [M+H]+
Name: BHT-OH
Name: 2,6-ditert-butyl-4-hydroxy-4-methylcyclohexa-2,5-dien-1-one
Formula: C15H24O2
Exact mass: 236.17763
SMILES: CC1(C=C(C(=O)C(=C1)C(C)(C)C)C(C)(C)C)O
InChI: InChI=1S/C15H24O2/c1-13(2,3)10-8-15(7,17)9-11(12(10)16)14(4,5)6/h8-9,17H,1-7H3
Instrument: Exploris 240 Orbitrap Thermo Scientific
Instrument type: LC-ESI-QFT
Ms type: MS2
Ion mode: POSITIVE
Ionization: ESI
Fragmentation mode: HCD
Collision energy: 30 % (nominal)
Resolution: 17500
Column name: XBridge C18 3.5um, 2.1x50mm, Waters
Retention time: 10.618 min
Base peak: 237.1847
Precursor m/z: 237.1849
Precursor type: [M+H]+
m/z	relative intensity	assigned
55.0541	14	C4H7+
57.0698	191	C4H9+
83.0855	387	C6H11+
95.0854	13	C7H11+
97.065	6	C6H9O+
99.0439	7	C5H7O2+
109.1012	7	C8H13+
121.101	113	C9H13+
123.0804	11	C8H11O+
125.0596	129	C7H9O2+
127.1118	8	C8H15O+
135.1165	19	C10H15+
137.0962	58	C9H13O+
139.1118	75	C9H15O+
153.1277	26	C10H17O+
155.1061	31	C9H15O2+
163.1117	28	C11H15O+
179.1433	8	C12H19O+
181.1222	999	C11H17O2+
191.1793	11	C14H23+
195.1737	22	C13H23O+
209.1903	13	C14H25O+
219.1741	5	C15H23O+
237.185	225	C15H25O2+
