Mass spectrum: AO1098; LC-ESI-QFT; MS2; CE: 30%; R=17500; [M+H]+
Name: AO1098
Name: Benzenepropanamide, N,N`-1,6-hexanediylbis(3,5-bis(1,1-dimethylethyl)-4-hydroxy-
Name: 3-(3,5-ditert-butyl-4-hydroxyphenyl)-N-[6-[3-(3,5-ditert-butyl-4-hydroxyphenyl)propanoylamino]hexyl]propanamide
Formula: C40H64N2O4
Exact mass: 636.4866
SMILES: CC(C)(C)C1=CC(=CC(=C1O)C(C)(C)C)CCC(=O)NCCCCCCNC(=O)CCC2=CC(=C(C(=C2)C(C)(C)C)O)C(C)(C)C
InChI: InChI=1S/C40H64N2O4/c1-37(2,3)29-23-27(24-30(35(29)45)38(4,5)6)17-19-33(43)41-21-15-13-14-16-22-42-34(44)20-18-28-25-31(39(7,8)9)36(46)32(26-28)40(10,11)12/h23-26,45-46H,13-22H2,1-12H3,(H,41,43)(H,42,44)
Instrument: Exploris 240 Orbitrap Thermo Scientific
Instrument type: LC-ESI-QFT
Ms type: MS2
Ion mode: POSITIVE
Ionization: ESI
Fragmentation mode: HCD
Collision energy: 30 % (nominal)
Resolution: 17500
Column name: XBridge C18 3.5um, 2.1x50mm, Waters
Retention time: 15.357 min
Base peak: 637.4934
Precursor m/z: 637.4939
Precursor type: [M+H]+
m/z	relative intensity	assigned
100.112	261	C6H14N+
202.0778	204	C16H10+
304.2273	163	C19H30NO2+
321.2536	360	C19H33N2O2+
377.3165	341	C23H41N2O2+
469.3063	610	C28H41N2O4+
581.4316	999	C36H57N2O4+
637.4946	250	C40H65N2O4+
