Mass spectrum: N-6-methyl-2-deoxyadenosine; LC-ESI-QFT; MS2; CE: 30%; R=17500; [M+H]+
Name: N-6-methyl-2-deoxyadenosine
Formula: C11H15N5O3
Exact mass: 265.1174894
SMILES: CNC1=C2C(=NC=N1)N(C=N2)C3CC(C(O3)CO)O
InChI: InChI=1S/C11H15N5O3/c1-12-10-9-11(14-4-13-10)16(5-15-9)8-2-6(18)7(3-17)19-8/h4-8,17-18H,2-3H2,1H3,(H,12,13,14)
Instrument: Exploris 240 Orbitrap Thermo Scientific
Instrument type: LC-ESI-QFT
Ms type: MS2
Ion mode: POSITIVE
Ionization: ESI
Fragmentation mode: HCD
Collision energy: 30 % (nominal)
Resolution: 17500
Column name: XBridge C18 3.5um, 2.1x50mm, Waters
Retention time: 2.046 min
Base peak: 266.1245
Precursor m/z: 266.1248
Precursor type: [M+H]+
m/z	relative intensity	assigned
71.0491	2	C4H7O+
73.0284	6	C3H5O2+
99.0439	19	C5H7O2+
117.0546	93	C5H9O3+
150.0773	999	C6H8N5+
266.1247	87	C11H16N5O3+
