Mass spectrum: 2-(3,4-Dihydroxyphenyl)Chroman-3,5,7-Triol; LC-ESI-QFT; MS2; CE: 30%; R=17500; [M-H]-
Name: 2-(3,4-Dihydroxyphenyl)Chroman-3,5,7-Triol
Name: 2-(3,4-dihydroxyphenyl)-3,4-dihydro-2H-1-benzopyran-3,5,7-triol
Name: 2-(3,4-dihydroxyphenyl)-3,4-dihydro-2H-chromene-3,5,7-triol
Formula: C15H14O6
Exact mass: 290.079038168
SMILES: C1C(C(OC2=CC(=CC(=C21)O)O)C3=CC(=C(C=C3)O)O)O
InChI: InChI=1S/C15H14O6/c16-8-4-11(18)9-6-13(20)15(21-14(9)5-8)7-1-2-10(17)12(19)3-7/h1-5,13,15-20H,6H2
Instrument: Exploris 240 Orbitrap Thermo Scientific
Instrument type: LC-ESI-QFT
Ms type: MS2
Ion mode: NEGATIVE
Ionization: ESI
Fragmentation mode: HCD
Collision energy: 30 % (nominal)
Resolution: 17500
Column name: XBridge C18 3.5um, 2.1x50mm, Waters
Retention time: 2.883 min
Base peak: 289.0716
Precursor m/z: 289.0718
Precursor type: [M-H]-
m/z	relative intensity	assigned
81.0344	7	C5H5O-
83.0137	7	C4H3O2-
95.0498	6	C6H7O-
97.0294	35	C5H5O2-
109.0294	151	C6H5O2-
121.0293	17	C7H5O2-
123.0451	55	C7H7O2-
125.0243	192	C6H5O3-
135.0453	7	C8H7O2-
137.0243	97	C7H5O3-
139.0401	28	C7H7O3-
149.0245	40	C8H5O3-
151.04	94	C8H7O3-
159.045	9	C10H7O2-
161.0247	11	C9H5O3-
161.0605	43	C10H9O2-
162.0322	15	C9H6O3-
163.0407	5	C9H7O3-
164.0114	15	C8H4O4-
165.0193	80	C8H5O4-
166.0268	10	C8H6O4-
167.0349	32	C8H7O4-
175.0396	27	C10H7O3-
175.0758	7	C11H11O2-
179.0349	149	C9H7O4-
187.0401	48	C11H7O3-
188.0476	37	C11H8O3-
202.063	26	C12H10O3-
203.0714	197	C12H11O3-
205.0506	178	C11H9O4-
221.0818	57	C12H13O4-
227.0708	42	C14H11O3-
230.0583	10	C13H10O4-
245.0818	647	C14H13O4-
247.0615	33	C13H11O5-
271.0612	20	C15H11O5-
289.0717	999	C15H13O6-
