Mass spectrum: 2,2'-Dihydroxy-4,4'-dimethoxybenzophenone; LC-ESI-QFT; MS2; CE: 180%; R=17500; [M+H]+
Name: 2,2'-Dihydroxy-4,4'-dimethoxybenzophenone
Name: Benzophenone-6
Name: bis(2-hydroxy-4-methoxyphenyl)methanone
Formula: C15H14O5
Exact mass: 274.0841235
SMILES: COC1=CC(=C(C=C1)C(=O)C2=C(C=C(C=C2)OC)O)O
InChI: InChI=1S/C15H14O5/c1-19-9-3-5-11(13(16)7-9)15(18)12-6-4-10(20-2)8-14(12)17/h3-8,16-17H,1-2H3
Instrument: Exploris 240 Orbitrap Thermo Scientific
Instrument type: LC-ESI-QFT
Ms type: MS2
Ion mode: POSITIVE
Ionization: ESI
Fragmentation mode: HCD
Collision energy: 180 % (nominal)
Resolution: 17500
Column name: XBridge C18 3.5um, 2.1x50mm, Waters
Retention time: 10.015 min
Base peak: 275.0912
Precursor m/z: 275.0914
Precursor type: [M+H]+
m/z	relative intensity	assigned
50.0151	342	C4H2+
51.0229	346	C4H3+
52.0307	999	C4H4+
53.0021	115	C3HO+
55.0178	88	C3H3O+
63.0229	65	C5H3+
65.0386	208	C5H5+
68.9971	219	C3HO2+
79.0179	54	C5H3O+
80.0256	111	C5H4O+
89.0388	30	C7H5+
95.049	20	C6H7O+
108.0205	62	C6H4O2+
115.0543	48	C9H7+
