Mass spectrum: THBP; LC-ESI-QFT; MS2; CE: 75%; R=17500; [M+H]+
Name: THBP
Name: 2,4,5-Trihydroxybutyrophenone
Name: 1-(2,4,5-trihydroxyphenyl)butan-1-one
Formula: C10H12O4
Exact mass: 196.0736
SMILES: CCCC(=O)C1=CC(=C(C=C1O)O)O
InChI: InChI=1S/C10H12O4/c1-2-3-7(11)6-4-9(13)10(14)5-8(6)12/h4-5,12-14H,2-3H2,1H3
Instrument: Exploris 240 Orbitrap Thermo Scientific
Instrument type: LC-ESI-QFT
Ms type: MS2
Ion mode: POSITIVE
Ionization: ESI
Fragmentation mode: HCD
Collision energy: 75 % (nominal)
Resolution: 17500
Column name: XBridge C18 3.5um, 2.1x50mm, Waters
Retention time: 5.501 min
Base peak: 197.0806
Precursor m/z: 197.0808
Precursor type: [M+H]+
m/z	relative intensity	assigned
53.0386	102	C4H5+
55.0178	156	C3H3O+
59.0492	72	C3H7O+
68.9972	68	C3HO2+
71.0491	559	C4H7O+
79.0541	220	C6H7+
91.0544	85	C7H7+
103.0544	87	C8H7+
105.0698	999	C8H9+
109.0284	358	C6H5O2+
115.0539	200	C9H7+
123.0439	948	C7H7O2+
133.0647	907	C9H9O+
139.0392	161	C7H7O3+
155.0342	135	C7H7O4+
161.0598	359	C10H9O2+
