Mass spectrum: UV320; LC-ESI-QFT; MS2; CE: 75%; R=17500; [M+H]+
Name: UV320
Name: 2-(benzotriazol-2-yl)-4,6-ditert-butylphenol
Formula: C20H25N3O
Exact mass: 323.1997624
SMILES: CC(C)(C)C1=CC(=C(C(=C1)N2N=C3C=CC=CC3=N2)O)C(C)(C)C
InChI: InChI=1S/C20H25N3O/c1-19(2,3)13-11-14(20(4,5)6)18(24)17(12-13)23-21-15-9-7-8-10-16(15)22-23/h7-12,24H,1-6H3
Instrument: Exploris 240 Orbitrap Thermo Scientific
Instrument type: LC-ESI-QFT
Ms type: MS2
Ion mode: POSITIVE
Ionization: ESI
Fragmentation mode: HCD
Collision energy: 75 % (nominal)
Resolution: 17500
Column name: XBridge C18 3.5um, 2.1x50mm, Waters
Retention time: 18.906 min
Base peak: 419.3156
Precursor m/z: 324.207
Precursor type: [M+H]+
m/z	relative intensity	assigned
57.0699	999	C4H9+
65.0386	37	C5H5+
92.0494	61	C6H6N+
105.07	53	C8H9+
107.0604	45	C6H7N2+
109.0651	20	C7H9O+
120.0559	35	C6H6N3+
129.0697	29	C10H9+
166.065	27	C12H8N+
183.0682	35	C12H9NO+
212.0815	160	C12H10N3O+
252.1131	44	C15H14N3O+
268.1449	34	C16H18N3O+
