Mass spectrum: 2-(3,4-Dihydroxyphenyl)Chroman-3,5,7-Triol; LC-ESI-QFT; MS2; CE: 150%; R=17500; [M+H]+
Name: 2-(3,4-Dihydroxyphenyl)Chroman-3,5,7-Triol
Name: 2-(3,4-dihydroxyphenyl)-3,4-dihydro-2H-1-benzopyran-3,5,7-triol
Name: 2-(3,4-dihydroxyphenyl)-3,4-dihydro-2H-chromene-3,5,7-triol
Formula: C15H14O6
Exact mass: 290.0790382
SMILES: C1C(C(OC2=CC(=CC(=C21)O)O)C3=CC(=C(C=C3)O)O)O
InChI: InChI=1S/C15H14O6/c16-8-4-11(18)9-6-13(20)15(21-14(9)5-8)7-1-2-10(17)12(19)3-7/h1-5,13,15-20H,6H2
Instrument: Exploris 240 Orbitrap Thermo Scientific
Instrument type: LC-ESI-QFT
Ms type: MS2
Ion mode: POSITIVE
Ionization: ESI
Fragmentation mode: HCD
Collision energy: 150 % (nominal)
Resolution: 17500
Column name: XBridge C18 3.5um, 2.1x50mm, Waters
Retention time: 2.894 min
Base peak: 291.0862
Precursor m/z: 291.0863
Precursor type: [M+H]+
m/z	relative intensity	assigned
50.0151	89	C4H2+
51.0229	999	C4H3+
53.0023	33	C3HO+
53.0386	168	C4H5+
55.0178	210	C3H3O+
55.0543	22	C4H7+
65.0386	719	C5H5+
67.0179	100	C4H3O+
67.0543	44	C5H7+
68.9971	435	C3HO2+
69.0333	27	C4H5O+
71.0129	57	C3H3O2+
75.0229	30	C6H3+
77.0386	702	C6H5+
79.0542	30	C6H7+
81.0335	40	C5H5O+
89.0385	89	C7H5+
91.0543	378	C7H7+
95.0492	157	C6H7O+
103.0543	42	C8H7+
115.0541	198	C9H7+
119.0493	44	C8H7O+
123.0439	225	C7H7O2+
