Mass spectrum: DBDPA; LC-ESI-QFT; MS2; CE: 180%; R=17500; [M+H]+
Name: DBDPA
Name: Bis(4-tert-butylphenyl)amine
Name: 4-tert-butyl-N-(4-tert-butylphenyl)aniline
Formula: C20H27N
Exact mass: 281.214349864
SMILES: CC(C)(C)C1=CC=C(C=C1)NC2=CC=C(C=C2)C(C)(C)C
InChI: InChI=1S/C20H27N/c1-19(2,3)15-7-11-17(12-8-15)21-18-13-9-16(10-14-18)20(4,5)6/h7-14,21H,1-6H3
Instrument: Exploris 240 Orbitrap Thermo Scientific
Instrument type: LC-ESI-QFT
Ms type: MS2
Ion mode: POSITIVE
Ionization: ESI
Fragmentation mode: HCD
Collision energy: 180 % (nominal)
Resolution: 17500
Column name: XBridge C18 3.5um, 2.1x50mm, Waters
Retention time: 16.524 min
Base peak: 282.2213
Precursor m/z: 282.2216
Precursor type: [M+H]+
m/z	relative intensity	assigned
53.0388	80	C4H5+
65.0385	182	C5H5+
66.0464	114	C5H6+
77.0386	429	C6H5+
78.0465	34	C6H6+
79.0542	238	C6H7+
91.0542	467	C7H7+
92.0496	26	C6H6N+
93.0573	475	C6H7N+
94.0651	283	C6H8N+
104.0497	55	C7H6N+
106.0651	999	C7H8N+
115.0542	136	C9H7+
117.0575	133	C8H7N+
118.0651	605	C8H8N+
119.0729	540	C8H9N+
