Mass spectrum: 2,4-Dihydroxybenzophenone; LC-ESI-QFT; MS2; CE: 15%; R=17500; [M-H]-
Name: 2,4-Dihydroxybenzophenone
Name: (2,4-dihydroxyphenyl)-phenylmethanone
Formula: C13H10O3
Exact mass: 214.06299418
SMILES: C1=CC=C(C=C1)C(=O)C2=C(C=C(C=C2)O)O
InChI: InChI=1S/C13H10O3/c14-10-6-7-11(12(15)8-10)13(16)9-4-2-1-3-5-9/h1-8,14-15H
Instrument: Exploris 240 Orbitrap Thermo Scientific
Instrument type: LC-ESI-QFT
Ms type: MS2
Ion mode: NEGATIVE
Ionization: ESI
Fragmentation mode: HCD
Collision energy: 15 % (nominal)
Resolution: 17500
Column name: XBridge C18 3.5um, 2.1x50mm, Waters
Retention time: 8.149 min
Base peak: 213.0557
Precursor m/z: 213.0557
Precursor type: [M-H]-
m/z	relative intensity	assigned
213.0557	999	C13H9O3-
