Mass spectrum: Gallic Acid; LC-ESI-QFT; MS2; CE: 150%; R=17500; [M-H]-
Name: Gallic Acid
Name: 3,4,5-trihydroxybenzoic acid
Formula: C7H6O5
Exact mass: 170.021523292
SMILES: C1=C(C=C(C(=C1O)O)O)C(=O)O
InChI: InChI=1S/C7H6O5/c8-4-1-3(7(11)12)2-5(9)6(4)10/h1-2,8-10H,(H,11,12)
Instrument: Exploris 240 Orbitrap Thermo Scientific
Instrument type: LC-ESI-QFT
Ms type: MS2
Ion mode: NEGATIVE
Ionization: ESI
Fragmentation mode: HCD
Collision energy: 150 % (nominal)
Resolution: 17500
Column name: XBridge C18 3.5um, 2.1x50mm, Waters
Retention time: 1.603 min
Base peak: 169.0142
Precursor m/z: 169.0142
Precursor type: [M-H]-
m/z	relative intensity	assigned
41.0033	417	C2HO-
43.0189	112	C2H3O-
44.9983	143	CHO2-
51.024	999	C4H3-
53.0033	115	C3HO-
67.019	746	C4H3O-
69.0347	173	C4H5O-
79.0189	368	C5H3O-
95.0139	266	C5H3O2-
123.009	162	C6H3O3-
124.0168	123	C6H4O3-
