Mass spectrum: OG; LC-ESI-QFT; MS2; CE: 180%; R=17500; [M-H]-
Name: OG
Name: Octyl gallate
Name: octyl 3,4,5-trihydroxybenzoate
Formula: C15H22O5
Exact mass: 282.1467
SMILES: CCCCCCCCOC(=O)C1=CC(=C(C(=C1)O)O)O
InChI: InChI=1S/C15H22O5/c1-2-3-4-5-6-7-8-20-15(19)11-9-12(16)14(18)13(17)10-11/h9-10,16-18H,2-8H2,1H3
Instrument: Exploris 240 Orbitrap Thermo Scientific
Instrument type: LC-ESI-QFT
Ms type: MS2
Ion mode: NEGATIVE
Ionization: ESI
Fragmentation mode: HCD
Collision energy: 180 % (nominal)
Resolution: 17500
Column name: XBridge C18 3.5um, 2.1x50mm, Waters
Retention time: 11.209 min
Base peak: 281.1393
Precursor m/z: 281.1394
Precursor type: [M-H]-
m/z	relative intensity	assigned
65.0032	999	C4HO-
78.0109	836	C5H2O-
95.0138	273	C5H3O2-
