Mass spectrum: Naringenin; LC-ESI-QFT; MS2; CE: 180%; R=17500; [M+H]+
Name: Naringenin
Name: (+-)-Naringenin
Name: 5,7-dihydroxy-2-(4-hydroxyphenyl)-2,3-dihydrochromen-4-one
Formula: C15H12O5
Exact mass: 272.0684735
SMILES: C1C(OC2=CC(=CC(=C2C1=O)O)O)C3=CC=C(C=C3)O
InChI: InChI=1S/C15H12O5/c16-9-3-1-8(2-4-9)13-7-12(19)15-11(18)5-10(17)6-14(15)20-13/h1-6,13,16-18H,7H2
Instrument: Exploris 240 Orbitrap Thermo Scientific
Instrument type: LC-ESI-QFT
Ms type: MS2
Ion mode: POSITIVE
Ionization: ESI
Fragmentation mode: HCD
Collision energy: 180 % (nominal)
Resolution: 17500
Column name: XBridge C18 3.5um, 2.1x50mm, Waters
Retention time: 6.351 min
Base peak: 273.0755
Precursor m/z: 273.0757
Precursor type: [M+H]+
m/z	relative intensity	assigned
50.0151	64	C4H2+
51.0229	276	C4H3+
53.0387	50	C4H5+
55.0178	103	C3H3O+
63.0229	50	C5H3+
65.0386	999	C5H5+
68.9971	563	C3HO2+
69.0335	62	C4H5O+
75.023	86	C6H3+
77.0384	102	C6H5+
79.0176	23	C5H3O+
89.0385	31	C7H5+
91.0543	190	C7H7+
95.0492	39	C6H7O+
115.0544	30	C9H7+
