Mass spectrum: IONOX-100; LC-ESI-QFT; MS2; CE: 90%; R=17500; [M-H]-
Name: IONOX-100
Name: 2,6-Di-tert-butyl-4-hydroxyphenylmethanol
Name: 3,5-ditert-butyl-4-(hydroxymethyl)phenol
Formula: C15H24O2
Exact mass: 236.1776
SMILES: CC(C)(C)C1=CC(=CC(=C1CO)C(C)(C)C)O
InChI: InChI=1S/C15H24O2/c1-14(2,3)12-7-10(17)8-13(11(12)9-16)15(4,5)6/h7-8,16-17H,9H2,1-6H3
Instrument: Exploris 240 Orbitrap Thermo Scientific
Instrument type: LC-ESI-QFT
Ms type: MS2
Ion mode: NEGATIVE
Ionization: ESI
Fragmentation mode: HCD
Collision energy: 90 % (nominal)
Resolution: 17500
Column name: XBridge C18 3.5um, 2.1x50mm, Waters
Retention time: 10.330 min
Base peak: 162.8391
Precursor m/z: 235.1704
Precursor type: [M-H]-
m/z	relative intensity	assigned
130.0426	268	C9H6O-
145.0659	999	C10H9O-
160.0895	903	C11H12O-
