Mass spectrum: UV-PS; LC-ESI-QFT; MS2; CE: 180%; R=17500; [M+H]+
Name: UV-PS
Name: 2-(benzotriazol-2-yl)-4-tert-butylphenol
Formula: C16H17N3O
Exact mass: 267.1371622
SMILES: CC(C)(C)C1=CC(=C(C=C1)O)N2N=C3C=CC=CC3=N2
InChI: InChI=1S/C16H17N3O/c1-16(2,3)11-8-9-15(20)14(10-11)19-17-12-6-4-5-7-13(12)18-19/h4-10,20H,1-3H3
Instrument: Exploris 240 Orbitrap Thermo Scientific
Instrument type: LC-ESI-QFT
Ms type: MS2
Ion mode: POSITIVE
Ionization: ESI
Fragmentation mode: HCD
Collision energy: 180 % (nominal)
Resolution: 17500
Column name: XBridge C18 3.5um, 2.1x50mm, Waters
Retention time: 15.802 min
Base peak: 268.1445
Precursor m/z: 268.1444
Precursor type: [M+H]+
m/z	relative intensity	assigned
51.023	245	C4H3+
52.0308	85	C4H4+
53.0386	130	C4H5+
63.023	58	C5H3+
65.0386	999	C5H5+
77.0385	151	C6H5+
78.0337	32	C5H4N+
78.0465	37	C6H6+
79.0543	83	C6H7+
80.0495	102	C5H6N+
91.0543	151	C7H7+
92.0498	50	C6H6N+
94.0415	23	C6H6O+
95.0494	93	C6H7O+
103.0543	37	C8H7+
105.0446	178	C6H5N2+
115.0543	56	C9H7+
128.0624	19	C10H8+
140.0496	16	C10H6N+
155.0605	19	C10H7N2+
