Mass spectrum: UV9; LC-ESI-QFT; MS2; CE: 60%; R=17500; [M+H]+
Name: UV9
Name: 2-(benzotriazol-2-yl)-4-methyl-6-prop-2-enylphenol
Formula: C16H15N3O
Exact mass: 265.1215121
SMILES: CC1=CC(=C(C(=C1)N2N=C3C=CC=CC3=N2)O)CC=C
InChI: InChI=1S/C16H15N3O/c1-3-6-12-9-11(2)10-15(16(12)20)19-17-13-7-4-5-8-14(13)18-19/h3-5,7-10,20H,1,6H2,2H3
Instrument: Exploris 240 Orbitrap Thermo Scientific
Instrument type: LC-ESI-QFT
Ms type: MS2
Ion mode: POSITIVE
Ionization: ESI
Fragmentation mode: HCD
Collision energy: 60 % (nominal)
Resolution: 17500
Column name: XBridge C18 3.5um, 2.1x50mm, Waters
Retention time: 16.910 min
Base peak: 266.1289
Precursor m/z: 266.1288
Precursor type: [M+H]+
m/z	relative intensity	assigned
65.0386	75	C5H5+
79.0542	29	C6H7+
91.0542	408	C7H7+
92.0495	172	C6H6N+
93.0699	25	C7H9+
103.0546	28	C8H7+
104.0619	19	C8H8+
105.0698	16	C8H9+
107.0494	13	C7H7O+
115.0541	59	C9H7+
117.0699	242	C9H9+
119.0855	999	C9H11+
120.0557	110	C6H6N3+
129.0699	68	C10H9+
132.0569	28	C9H8O+
133.0648	39	C9H9O+
145.0648	24	C10H9O+
147.0807	84	C10H11O+
160.0759	61	C10H10NO+
161.0838	63	C10H11NO+
167.0728	33	C12H9N+
180.0814	19	C13H10N+
181.0888	13	C13H11N+
196.0751	12	C13H10NO+
225.0897	58	C13H11N3O+
235.0872	16	C15H11N2O+
238.0975	237	C14H12N3O+
266.1292	27	C16H16N3O+
