Mass spectrum: Cis-Dihydroanatoxin-A; LC-ESI-QFT; MS2; CE: 90%; R=17500; [M+H]+
Name: Cis-Dihydroanatoxin-A
Name: 1-[(1R,2S,6R)-9-azabicyclo[4.2.1]nonan-2-yl]ethanone
Formula: C10H17NO
Exact mass: 167.1310142
SMILES: CC(=O)[C@H]1CCC[C@@H]2CC[C@H]1N2
InChI: InChI=1S/C10H17NO/c1-7(12)9-4-2-3-8-5-6-10(9)11-8/h8-11H,2-6H2,1H3/t8-,9-,10-/m1/s1
Instrument: Exploris 240 Orbitrap Thermo Scientific
Instrument type: LC-ESI-QFT
Ms type: MS2
Ion mode: POSITIVE
Ionization: ESI
Fragmentation mode: HCD
Collision energy: 90 % (nominal)
Resolution: 17500
Column name: XBridge C18 3.5um, 2.1x50mm, Waters
Retention time: 1.752 min
Base peak: 168.1382
Precursor m/z: 168.1383
Precursor type: [M+H]+
m/z	relative intensity	assigned
43.0178	999	C2H3O+
44.0495	41	C2H6N+
53.0385	22	C4H5+
55.0541	61	C4H7+
56.0495	915	C3H6N+
59.049	26	C3H7O+
65.0387	30	C5H5+
67.0542	516	C5H7+
70.0652	76	C4H8N+
71.0492	93	C4H7O+
77.0389	50	C6H5+
79.0542	112	C6H7+
80.0494	23	C5H6N+
81.0699	144	C6H9+
84.0808	20	C5H10N+
91.0541	205	C7H7+
93.0699	250	C7H9+
95.0492	25	C6H7O+
105.0701	71	C8H9+
107.0857	87	C8H11+
110.0961	65	C7H12N+
125.096	54	C8H13O+
168.1382	223	C10H18NO+
