Mass spectrum: 3`,4,4`,5,7-Pentahydroxyflavan; LC-ESI-QFT; MS2; CE: 45%; R=17500; [M-H]-
Name: 3`,4,4`,5,7-Pentahydroxyflavan
Name: 2-(3,4-dihydroxyphenyl)-3,4-dihydro-2H-chromene-4,5,7-triol
Formula: C15H14O6
Exact mass: 290.079038168
SMILES: C1C(C2=C(C=C(C=C2OC1C3=CC(=C(C=C3)O)O)O)O)O
InChI: InChI=1S/C15H14O6/c16-8-4-11(19)15-12(20)6-13(21-14(15)5-8)7-1-2-9(17)10(18)3-7/h1-5,12-13,16-20H,6H2
Instrument: Exploris 240 Orbitrap Thermo Scientific
Instrument type: LC-ESI-QFT
Ms type: MS2
Ion mode: NEGATIVE
Ionization: ESI
Fragmentation mode: HCD
Collision energy: 45 % (nominal)
Resolution: 17500
Column name: XBridge C18 3.5um, 2.1x50mm, Waters
Retention time: 2.902 min
Base peak: 289.0717
Precursor m/z: 289.0718
Precursor type: [M-H]-
m/z	relative intensity	assigned
57.0347	55	C3H5O-
81.0346	108	C5H5O-
83.0138	83	C4H3O2-
95.0503	184	C6H7O-
97.0295	279	C5H5O2-
108.0215	23	C6H4O2-
109.0295	999	C6H5O2-
121.0297	133	C7H5O2-
122.0377	40	C7H6O2-
123.0451	631	C7H7O2-
125.0244	738	C6H5O3-
137.0243	389	C7H5O3-
138.0321	45	C7H6O3-
139.0405	133	C7H7O3-
145.0296	40	C9H5O2-
149.0246	272	C8H5O3-
150.0328	39	C8H6O3-
151.0401	524	C8H7O3-
159.0456	71	C10H7O2-
160.0533	57	C10H8O2-
161.0246	41	C9H5O3-
161.0606	230	C10H9O2-
162.0322	63	C9H6O3-
163.0397	67	C9H7O3-
164.0113	163	C8H4O4-
165.0192	161	C8H5O4-
166.0276	47	C8H6O4-
167.0347	66	C8H7O4-
173.0609	24	C11H9O2-
174.0321	33	C10H6O3-
175.0402	95	C10H7O3-
175.0762	93	C11H11O2-
177.0564	25	C10H9O3-
179.0351	178	C9H7O4-
185.0612	28	C12H9O2-
187.0402	219	C11H7O3-
188.0478	175	C11H8O3-
199.077	31	C13H11O2-
201.0556	36	C12H9O3-
202.0636	144	C12H10O3-
203.0714	699	C12H11O3-
205.0507	303	C11H9O4-
217.0874	46	C13H13O3-
221.0818	375	C12H13O4-
227.0716	135	C14H11O3-
230.0591	45	C13H10O4-
245.082	367	C14H13O4-
247.0613	47	C13H11O5-
271.0612	32	C15H11O5-
289.0725	125	C15H13O6-
