Mass spectrum: BHT-OH; LC-ESI-QFT; MS2; CE: 75%; R=17500; [M+H]+
Name: BHT-OH
Name: 2,6-ditert-butyl-4-hydroxy-4-methylcyclohexa-2,5-dien-1-one
Formula: C15H24O2
Exact mass: 236.17763
SMILES: CC1(C=C(C(=O)C(=C1)C(C)(C)C)C(C)(C)C)O
InChI: InChI=1S/C15H24O2/c1-13(2,3)10-8-15(7,17)9-11(12(10)16)14(4,5)6/h8-9,17H,1-7H3
Instrument: Exploris 240 Orbitrap Thermo Scientific
Instrument type: LC-ESI-QFT
Ms type: MS2
Ion mode: POSITIVE
Ionization: ESI
Fragmentation mode: HCD
Collision energy: 75 % (nominal)
Resolution: 17500
Column name: XBridge C18 3.5um, 2.1x50mm, Waters
Retention time: 10.618 min
Base peak: 237.1847
Precursor m/z: 237.1849
Precursor type: [M+H]+
m/z	relative intensity	assigned
55.0542	242	C4H7+
57.0698	999	C4H9+
59.0492	26	C3H7O+
67.0542	23	C5H7+
69.07	25	C5H9+
79.0541	37	C6H7+
81.0698	11	C6H9+
83.0491	93	C5H7O+
83.0855	184	C6H11+
91.0545	10	C7H7+
93.0699	26	C7H9+
95.0854	51	C7H11+
97.0647	82	C6H9O+
105.0699	35	C8H9+
107.049	22	C7H7O+
107.0858	18	C8H11+
109.101	21	C8H13+
119.0857	20	C9H11+
121.1011	77	C9H13+
122.0725	11	C8H10O+
123.0803	25	C8H11O+
125.0596	152	C7H9O2+
135.1164	10	C10H15+
137.0963	17	C9H13O+
139.112	95	C9H15O+
