Mass spectrum: 2,4-Dihydroxybenzophenone; LC-ESI-QFT; MS2; CE: 75%; R=17500; [M-H]-
Name: 2,4-Dihydroxybenzophenone
Name: (2,4-dihydroxyphenyl)-phenylmethanone
Formula: C13H10O3
Exact mass: 214.06299418
SMILES: C1=CC=C(C=C1)C(=O)C2=C(C=C(C=C2)O)O
InChI: InChI=1S/C13H10O3/c14-10-6-7-11(12(15)8-10)13(16)9-4-2-1-3-5-9/h1-8,14-15H
Instrument: Exploris 240 Orbitrap Thermo Scientific
Instrument type: LC-ESI-QFT
Ms type: MS2
Ion mode: NEGATIVE
Ionization: ESI
Fragmentation mode: HCD
Collision energy: 75 % (nominal)
Resolution: 17500
Column name: XBridge C18 3.5um, 2.1x50mm, Waters
Retention time: 8.149 min
Base peak: 213.0557
Precursor m/z: 213.0557
Precursor type: [M-H]-
m/z	relative intensity	assigned
49.0083	21	C4H-
65.0033	23	C4HO-
67.0188	5	C4H3O-
77.0397	9	C6H5-
91.0189	999	C6H3O-
107.0139	8	C6H3O2-
119.0502	15	C8H7O-
121.0297	10	C7H5O2-
135.0088	361	C7H3O3-
141.0712	17	C11H9-
143.0506	28	C10H7O-
154.0425	6	C11H6O-
169.0659	110	C12H9O-
171.0453	13	C11H7O2-
213.0555	38	C13H9O3-
