Mass spectrum: Fenozan; LC-ESI-QFT; MS2; CE: 60%; R=17500; [M-H]-
Name: Fenozan
Name: 3-(3,5-Di-tert-butyl-4-hydroxyphenyl)propionic acid
Name: 3-(3,5-ditert-butyl-4-hydroxyphenyl)propanoic acid
Formula: C17H26O3
Exact mass: 278.188194692
SMILES: CC(C)(C)C1=CC(=CC(=C1O)C(C)(C)C)CCC(=O)O
InChI: InChI=1S/C17H26O3/c1-16(2,3)12-9-11(7-8-14(18)19)10-13(15(12)20)17(4,5)6/h9-10,20H,7-8H2,1-6H3,(H,18,19)
Instrument: Exploris 240 Orbitrap Thermo Scientific
Instrument type: LC-ESI-QFT
Ms type: MS2
Ion mode: NEGATIVE
Ionization: ESI
Fragmentation mode: HCD
Collision energy: 60 % (nominal)
Resolution: 17500
Column name: XBridge C18 3.5um, 2.1x50mm, Waters
Retention time: 12.046 min
Base peak: 277.1808
Precursor m/z: 277.1809
Precursor type: [M-H]-
m/z	relative intensity	assigned
59.0138	999	C2H3O2-
119.0503	12	C8H7O-
175.1135	10	C12H15O-
205.1596	163	C14H21O-
233.1908	38	C16H25O-
277.1812	18	C17H25O3-
