Mass spectrum: Drometrizole; LC-ESI-QFT; MS2; CE: 60%; R=17500; [M+H]+
Name: Drometrizole
Name: 2-(benzotriazol-2-yl)-4-methylphenol
Formula: C13H11N3O
Exact mass: 225.090212
SMILES: CC1=CC(=C(C=C1)O)N2N=C3C=CC=CC3=N2
InChI: InChI=1S/C13H11N3O/c1-9-6-7-13(17)12(8-9)16-14-10-4-2-3-5-11(10)15-16/h2-8,17H,1H3
Instrument: Exploris 240 Orbitrap Thermo Scientific
Instrument type: LC-ESI-QFT
Ms type: MS2
Ion mode: POSITIVE
Ionization: ESI
Fragmentation mode: HCD
Collision energy: 60 % (nominal)
Resolution: 17500
Column name: XBridge C18 3.5um, 2.1x50mm, Waters
Retention time: 13.562 min
Base peak: 226.0974
Precursor m/z: 226.0975
Precursor type: [M+H]+
m/z	relative intensity	assigned
53.0387	24	C4H5+
65.0386	25	C5H5+
77.0386	92	C6H5+
79.0542	718	C6H7+
92.0494	36	C6H6N+
95.0492	27	C6H7O+
105.0447	44	C6H5N2+
106.0527	15	C6H6N2+
107.0492	999	C7H7O+
120.0556	910	C6H6N3+
128.0621	21	C10H8+
143.0856	10	C11H11+
153.0698	11	C12H9+
154.065	38	C11H8N+
155.0729	53	C11H9N+
170.096	18	C12H12N+
180.0809	42	C13H10N+
182.0834	23	C12H10N2+
183.0678	205	C12H9NO+
197.0829	31	C13H11NO+
226.0977	168	C13H12N3O+
