Mass spectrum: AO ZKF; LC-ESI-QFT; MS2; CE: 90%; R=17500; [M+H]+
Name: AO ZKF
Name: 2,2'-Methylenebis(6-cyclohexyl-p-cresol)
Name: 2-cyclohexyl-6-[(3-cyclohexyl-2-hydroxy-5-methylphenyl)methyl]-4-methylphenol
Formula: C27H36O2
Exact mass: 392.2715304
SMILES: CC1=CC(=C(C(=C1)C2CCCCC2)O)CC3=C(C(=CC(=C3)C)C4CCCCC4)O
InChI: InChI=1S/C27H36O2/c1-18-13-22(26(28)24(15-18)20-9-5-3-6-10-20)17-23-14-19(2)16-25(27(23)29)21-11-7-4-8-12-21/h13-16,20-21,28-29H,3-12,17H2,1-2H3
Instrument: Exploris 240 Orbitrap Thermo Scientific
Instrument type: LC-ESI-QFT
Ms type: MS2
Ion mode: POSITIVE
Ionization: ESI
Fragmentation mode: HCD
Collision energy: 90 % (nominal)
Resolution: 17500
Column name: XBridge C18 3.5um, 2.1x50mm, Waters
Retention time: 18.097 min
Base peak: 203.143
Precursor m/z: 393.2788
Precursor type: [M+H]+
m/z	relative intensity	assigned
53.0386	157	C4H5+
55.0543	70	C4H7+
65.0385	170	C5H5+
67.0542	108	C5H7+
77.0387	81	C6H5+
79.0542	855	C6H7+
81.0699	685	C6H9+
91.0543	685	C7H7+
93.0699	96	C7H9+
95.0493	81	C6H7O+
103.0542	103	C8H7+
105.0699	694	C8H9+
107.0855	251	C8H11+
115.0541	107	C9H7+
119.0857	154	C9H11+
121.0648	200	C8H9O+
133.0651	99	C9H9O+
135.0804	999	C9H11O+
