Mass spectrum: Naringenin; LC-ESI-QFT; MS2; CE: 45%; R=17500; [M+H]+
Name: Naringenin
Name: (+-)-Naringenin
Name: 5,7-dihydroxy-2-(4-hydroxyphenyl)-2,3-dihydrochromen-4-one
Formula: C15H12O5
Exact mass: 272.0684735
SMILES: C1C(OC2=CC(=CC(=C2C1=O)O)O)C3=CC=C(C=C3)O
InChI: InChI=1S/C15H12O5/c16-9-3-1-8(2-4-9)13-7-12(19)15-11(18)5-10(17)6-14(15)20-13/h1-6,13,16-18H,7H2
Instrument: Exploris 240 Orbitrap Thermo Scientific
Instrument type: LC-ESI-QFT
Ms type: MS2
Ion mode: POSITIVE
Ionization: ESI
Fragmentation mode: HCD
Collision energy: 45 % (nominal)
Resolution: 17500
Column name: XBridge C18 3.5um, 2.1x50mm, Waters
Retention time: 6.351 min
Base peak: 273.0755
Precursor m/z: 273.0757
Precursor type: [M+H]+
m/z	relative intensity	assigned
107.0492	16	C7H7O+
119.0491	39	C8H7O+
123.0439	37	C7H7O2+
147.0441	610	C9H7O2+
151.0391	7	C8H7O3+
153.0182	999	C7H5O4+
179.0334	10	C9H7O4+
189.0539	14	C11H9O3+
255.0648	9	C15H11O4+
273.0758	292	C15H13O5+
