Mass spectrum: Desoxyguanosine; LC-ESI-QFT; MS2; CE: 150%; R=17500; [M+H]+
Name: Desoxyguanosine
Name: 2-amino-9-[4-hydroxy-5-(hydroxymethyl)oxolan-2-yl]-1H-purin-6-one
Formula: C10H13N5O4
Exact mass: 267.0967539
SMILES: C1C(C(OC1N2C=NC3=C2N=C(NC3=O)N)CO)O
InChI: InChI=1S/C10H13N5O4/c11-10-13-8-7(9(18)14-10)12-3-15(8)6-1-4(17)5(2-16)19-6/h3-6,16-17H,1-2H2,(H3,11,13,14,18)
Instrument: Exploris 240 Orbitrap Thermo Scientific
Instrument type: LC-ESI-QFT
Ms type: MS2
Ion mode: POSITIVE
Ionization: ESI
Fragmentation mode: HCD
Collision energy: 150 % (nominal)
Resolution: 17500
Column name: XBridge C18 3.5um, 2.1x50mm, Waters
Retention time: 6.504 min
Base peak: 186.0913
Precursor m/z: 186.0913
Precursor type: [M+H]+
m/z	relative intensity	assigned
51.0228	19	C4H3+
53.0386	101	C4H5+
54.034	25	C3H4N+
54.0463	10	C4H6+
65.0386	195	C5H5+
66.0464	86	C5H6+
80.0495	999	C5H6N+
81.0335	142	C5H5O+
81.0573	117	C5H7N+
82.0414	62	C5H6O+
92.0495	36	C6H6N+
93.0573	182	C6H7N+
108.0444	171	C6H6NO+
109.0522	535	C6H7NO+
115.0543	31	C9H7+
