Mass spectrum: Aureusidin; LC-ESI-QFT; MS2; CE: 60%; R=17500; [M+H]+
Name: Aureusidin
Name: 2-[(3,4-Dihydroxyphenyl)methylidene]-4,6-dihydroxy-3-benzofuranone
Name: 2-[(3,4-dihydroxyphenyl)methylidene]-4,6-dihydroxy-1-benzofuran-3-one
Formula: C15H10O6
Exact mass: 286.047738
SMILES: C1=CC(=C(C=C1C=C2C(=O)C3=C(C=C(C=C3O2)O)O)O)O
InChI: InChI=1S/C15H10O6/c16-8-5-11(19)14-12(6-8)21-13(15(14)20)4-7-1-2-9(17)10(18)3-7/h1-6,16-19H
Instrument: Exploris 240 Orbitrap Thermo Scientific
Instrument type: LC-ESI-QFT
Ms type: MS2
Ion mode: POSITIVE
Ionization: ESI
Fragmentation mode: HCD
Collision energy: 60 % (nominal)
Resolution: 17500
Column name: XBridge C18 3.5um, 2.1x50mm, Waters
Retention time: 5.270 min
Base peak: 287.0547
Precursor m/z: 287.055
Precursor type: [M+H]+
m/z	relative intensity	assigned
55.018	22	C3H3O+
67.0178	23	C4H3O+
68.9972	68	C3HO2+
77.0387	14	C6H5+
79.0542	22	C6H7+
81.0335	20	C5H5O+
89.0385	15	C7H5+
95.0125	12	C5H3O2+
105.0335	86	C7H5O+
107.0491	51	C7H7O+
109.0287	17	C6H5O2+
111.0076	15	C5H3O3+
117.0336	28	C8H5O+
121.0285	28	C7H5O2+
123.0077	19	C6H3O3+
123.0438	13	C7H7O2+
129.0697	17	C10H9+
131.0494	31	C9H7O+
133.0287	19	C8H5O2+
135.044	63	C8H7O2+
137.0236	24	C7H5O3+
141.0701	31	C11H9+
145.0653	16	C10H9O+
147.0441	29	C9H7O2+
149.0232	168	C8H5O3+
153.0182	999	C7H5O4+
157.0286	11	C10H5O2+
157.0653	50	C11H9O+
161.0234	118	C9H5O3+
161.0594	16	C10H9O2+
165.0178	22	C8H5O4+
171.0437	21	C11H7O2+
175.0388	38	C10H7O3+
175.0757	31	C11H11O2+
179.0345	15	C9H7O4+
185.0598	94	C12H9O2+
189.0549	33	C11H9O3+
191.0334	45	C10H7O4+
197.0601	26	C13H9O2+
199.0394	36	C12H7O3+
203.0704	93	C12H11O3+
205.0134	17	C10H5O5+
213.0546	265	C13H9O3+
216.0419	36	C12H8O4+
217.0493	76	C12H9O4+
229.05	12	C13H9O4+
231.0652	339	C13H11O4+
241.0495	555	C14H9O4+
259.0596	40	C14H11O5+
269.0445	136	C15H9O5+
287.0549	204	C15H11O6+
