Mass spectrum: IPPD-Q; LC-ESI-QFT; MS2; CE: 60%; R=17500; [M+H]+
Name: IPPD-Q
Name: 2-anilino-5-(propan-2-ylamino)cyclohexa-2,5-diene-1,4-dione
Formula: C15H16N2O2
Exact mass: 256.1211778
SMILES: CC(C)NC1=CC(=O)C(=CC1=O)NC2=CC=CC=C2
InChI: InChI=1S/C15H16N2O2/c1-10(2)16-12-8-15(19)13(9-14(12)18)17-11-6-4-3-5-7-11/h3-10,16-17H,1-2H3
Instrument: Exploris 240 Orbitrap Thermo Scientific
Instrument type: LC-ESI-QFT
Ms type: MS2
Ion mode: POSITIVE
Ionization: ESI
Fragmentation mode: HCD
Collision energy: 60 % (nominal)
Resolution: 17500
Column name: XBridge C18 3.5um, 2.1x50mm, Waters
Retention time: 7.927 min
Base peak: 257.1283
Precursor m/z: 257.1285
Precursor type: [M+H]+
m/z	relative intensity	assigned
55.0178	39	C3H3O+
58.0651	96	C3H8N+
84.0444	16	C4H6NO+
93.0575	18	C6H7N+
94.0649	29	C6H8N+
104.0497	25	C7H6N+
112.0398	10	C5H6NO2+
118.0653	17	C8H8N+
123.0442	29	C7H7O2+
130.0651	12	C9H8N+
142.0651	10	C10H8N+
144.0441	8	C9H6NO+
144.0804	30	C10H10N+
146.0602	35	C9H8NO+
150.0546	5	C8H8NO2+
154.0653	24	C11H8N+
159.092	9	C10H11N2+
164.0711	20	C9H10NO2+
170.0601	212	C11H8NO+
172.0758	60	C11H10NO+
182.0599	15	C12H8NO+
187.0866	999	C11H11N2O+
198.0555	54	C12H8NO2+
200.0708	79	C12H10NO2+
201.0789	58	C12H11NO2+
214.0737	44	C12H10N2O2+
215.0815	337	C12H11N2O2+
216.0895	64	C12H12N2O2+
257.1284	54	C15H17N2O2+
