Mass spectrum: Silibinin; LC-ESI-QFT; MS2; CE: 45%; R=17500; [M+H]+
Name: Silibinin
Name: Silymarin
Name: 3,5,7-trihydroxy-2-[3-(4-hydroxy-3-methoxyphenyl)-2-(hydroxymethyl)-2,3-dihydro-1,4-benzodioxin-6-yl]-2,3-dihydrochromen-4-one
Formula: C25H22O10
Exact mass: 482.1212969
SMILES: COC1=C(C=CC(=C1)C2C(OC3=C(O2)C=C(C=C3)C4C(C(=O)C5=C(C=C(C=C5O4)O)O)O)CO)O
InChI: InChI=1S/C25H22O10/c1-32-17-6-11(2-4-14(17)28)24-20(10-26)33-16-5-3-12(7-18(16)34-24)25-23(31)22(30)21-15(29)8-13(27)9-19(21)35-25/h2-9,20,23-29,31H,10H2,1H3
Instrument: Exploris 240 Orbitrap Thermo Scientific
Instrument type: LC-ESI-QFT
Ms type: MS2
Ion mode: POSITIVE
Ionization: ESI
Fragmentation mode: HCD
Collision energy: 45 % (nominal)
Resolution: 17500
Column name: XBridge C18 3.5um, 2.1x50mm, Waters
Retention time: 6.153 min
Base peak: 483.1283
Precursor m/z: 483.1286
Precursor type: [M+H]+
m/z	relative intensity	assigned
91.0543	22	C7H7+
93.0335	22	C6H5O+
103.0545	28	C8H7+
105.0697	17	C8H9+
107.049	22	C7H7O+
111.0441	47	C6H7O2+
119.0491	78	C8H7O+
121.0287	38	C7H5O2+
121.0649	23	C8H9O+
123.0441	38	C7H7O2+
130.041	52	C9H6O+
131.0491	413	C9H7O+
133.0284	130	C8H5O2+
133.0649	26	C9H9O+
135.0439	53	C8H7O2+
137.0597	289	C8H9O2+
139.039	76	C7H7O3+
147.044	182	C9H7O2+
149.0233	434	C8H5O3+
149.0594	124	C9H9O2+
150.0676	107	C9H10O2+
151.0755	24	C9H11O2+
153.0182	999	C7H5O4+
159.0443	69	C10H7O2+
161.0233	19	C9H5O3+
161.0599	106	C10H9O2+
162.0675	385	C10H10O2+
163.0751	38	C10H11O2+
165.055	17	C9H9O3+
167.0338	202	C8H7O4+
177.0545	99	C10H9O3+
179.0702	14	C10H11O3+
180.0785	19	C10H12O3+
187.0388	18	C11H7O3+
195.0289	261	C9H7O5+
201.0542	69	C12H9O3+
211.0757	15	C14H11O2+
213.0543	110	C13H9O3+
223.0754	26	C15H11O2+
229.0496	158	C13H9O4+
231.0652	30	C13H11O4+
241.0494	101	C14H9O4+
242.0575	44	C14H10O4+
251.0702	105	C16H11O3+
253.0865	22	C16H13O3+
255.0655	54	C15H11O4+
257.0446	156	C14H9O5+
269.0455	28	C15H9O5+
279.0652	23	C17H11O4+
283.0598	40	C16H11O5+
283.0973	82	C17H15O4+
285.0388	17	C15H9O6+
379.1183	106	C22H19O6+
387.087	25	C23H15O6+
407.1127	14	C23H19O7+
433.0922	55	C24H17O8+
