Mass spectrum: diAMS; LC-ESI-QFT; MS2; CE: 90%; R=17500; [M+H]+
Name: diAMS
Name: Bis[4-(2-phenyl-2-propyl)phenyl]amine
Name: 4-(2-phenylpropan-2-yl)-N-[4-(2-phenylpropan-2-yl)phenyl]aniline
Formula: C30H31N
Exact mass: 405.2457
SMILES: CC(C)(C1=CC=CC=C1)C2=CC=C(C=C2)NC3=CC=C(C=C3)C(C)(C)C4=CC=CC=C4
InChI: InChI=1S/C30H31N/c1-29(2,23-11-7-5-8-12-23)25-15-19-27(20-16-25)31-28-21-17-26(18-22-28)30(3,4)24-13-9-6-10-14-24/h5-22,31H,1-4H3
Instrument: Exploris 240 Orbitrap Thermo Scientific
Instrument type: LC-ESI-QFT
Ms type: MS2
Ion mode: POSITIVE
Ionization: ESI
Fragmentation mode: HCD
Collision energy: 90 % (nominal)
Resolution: 17500
Column name: XBridge C18 3.5um, 2.1x50mm, Waters
Retention time: 17.422 min
Base peak: 406.2525
Precursor m/z: 406.2529
Precursor type: [M+H]+
m/z	relative intensity	assigned
79.0544	67	C6H7+
91.0542	805	C7H7+
94.0651	143	C6H8N+
103.0542	525	C8H7+
118.0651	522	C8H8N+
165.0699	56	C13H9+
178.0774	100	C14H10+
179.0855	156	C14H11+
180.08	119	C13H10N+
181.0885	281	C13H11N+
194.0964	92	C14H12N+
196.1121	999	C14H14N+
202.0778	247	C16H10+
