Mass spectrum: 6PPD-Quinone; LC-ESI-QFT; MS2; CE: 90%; R=17500; [M+H]+
Name: 6PPD-Quinone
Name: 2-anilino-5-(4-methylpentan-2-ylamino)cyclohexa-2,5-diene-1,4-dione
Formula: C18H22N2O2
Exact mass: 298.1681279
SMILES: CC(C)CC(C)NC1=CC(=O)C(=CC1=O)NC2=CC=CC=C2
InChI: InChI=1S/C18H22N2O2/c1-12(2)9-13(3)19-15-10-18(22)16(11-17(15)21)20-14-7-5-4-6-8-14/h4-8,10-13,19-20H,9H2,1-3H3
Instrument: Exploris 240 Orbitrap Thermo Scientific
Instrument type: LC-ESI-QFT
Ms type: MS2
Ion mode: POSITIVE
Ionization: ESI
Fragmentation mode: HCD
Collision energy: 90 % (nominal)
Resolution: 17500
Column name: XBridge C18 3.5um, 2.1x50mm, Waters
Retention time: 11.329 min
Base peak: 299.175
Precursor m/z: 299.1754
Precursor type: [M+H]+
m/z	relative intensity	assigned
53.0385	49	C4H5+
55.0178	213	C3H3O+
57.0698	90	C4H9+
58.0652	48	C3H8N+
66.0338	25	C4H4N+
67.0179	119	C4H3O+
68.013	127	C3H2NO+
77.0386	138	C6H5+
84.0442	330	C4H6NO+
91.0543	45	C7H7+
92.0495	39	C6H6N+
93.0572	222	C6H7N+
94.065	134	C6H8N+
95.0488	68	C6H7O+
96.0444	39	C5H6NO+
104.0493	482	C7H6N+
105.0447	61	C6H5N2+
109.0395	28	C5H5N2O+
110.0477	67	C5H6N2O+
111.0552	77	C5H7N2O+
115.0541	242	C9H7+
116.0493	24	C8H6N+
117.0574	81	C8H7N+
117.0695	57	C9H9+
118.0652	247	C8H8N+
120.0444	46	C7H6NO+
120.0806	124	C8H10N+
128.0496	60	C9H6N+
130.0654	78	C9H8N+
132.0808	50	C9H10N+
139.0499	47	C6H7N2O2+
140.0491	44	C10H6N+
142.0651	252	C10H8N+
143.073	74	C10H9N+
144.0443	46	C9H6NO+
144.0804	289	C10H10N+
146.06	294	C9H8NO+
154.0648	172	C11H8N+
155.0601	44	C10H7N2+
158.0839	89	C10H10N2+
159.0921	106	C10H11N2+
170.06	258	C11H8NO+
172.0759	297	C11H10NO+
182.0608	45	C12H8NO+
187.0863	752	C11H11N2O+
199.0627	40	C12H9NO2+
199.0865	30	C12H11N2O+
200.0708	398	C12H10NO2+
214.0854	81	C13H12NO2+
226.0733	96	C13H10N2O2+
227.0814	62	C13H11N2O2+
241.0971	999	C14H13N2O2+
