Mass spectrum: AO245; LC-ESI-QFT; MS2; CE: 150%; R=17500; [M+H]+
Name: AO245
Name: Triethylene glycol bis(3-tert-butyl-4-hydroxy-5-methylphenyl)propionate
Name: 2-[2-[2-[3-(3-tert-butyl-4-hydroxy-5-methylphenyl)propanoyloxy]ethoxy]ethoxy]ethyl 3-(3-tert-butyl-4-hydroxy-5-methylphenyl)propanoate
Formula: C34H50O8
Exact mass: 586.3506
SMILES: CC1=CC(=CC(=C1O)C(C)(C)C)CCC(=O)OCCOCCOCCOC(=O)CCC2=CC(=C(C(=C2)C)O)C(C)(C)C
InChI: InChI=1S/C34H50O8/c1-23-19-25(21-27(31(23)37)33(3,4)5)9-11-29(35)41-17-15-39-13-14-40-16-18-42-30(36)12-10-26-20-24(2)32(38)28(22-26)34(6,7)8/h19-22,37-38H,9-18H2,1-8H3
Instrument: Exploris 240 Orbitrap Thermo Scientific
Instrument type: LC-ESI-QFT
Ms type: MS2
Ion mode: POSITIVE
Ionization: ESI
Fragmentation mode: HCD
Collision energy: 150 % (nominal)
Resolution: 17500
Column name: XBridge C18 3.5um, 2.1x50mm, Waters
Retention time: 14.048 min
Base peak: 609.3396
Precursor m/z: 587.3578
Precursor type: [M+H]+
m/z	relative intensity	assigned
65.0385	344	C5H5+
77.0386	352	C6H5+
78.0465	67	C6H6+
79.0543	331	C6H7+
91.0542	999	C7H7+
95.0491	494	C6H7O+
103.0543	271	C8H7+
105.0699	283	C8H9+
115.0541	295	C9H7+
117.0699	191	C9H9+
121.0647	123	C8H9O+
128.0619	192	C10H8+
131.0489	86	C9H7O+
147.0802	52	C10H11O+
202.0778	505	C16H10+
