Mass spectrum: 6PPD-Quinone; LC-ESI-QFT; MS2; CE: 180%; R=17500; [M+H]+
Name: 6PPD-Quinone
Name: 2-anilino-5-(4-methylpentan-2-ylamino)cyclohexa-2,5-diene-1,4-dione
Formula: C18H22N2O2
Exact mass: 298.1681279
SMILES: CC(C)CC(C)NC1=CC(=O)C(=CC1=O)NC2=CC=CC=C2
InChI: InChI=1S/C18H22N2O2/c1-12(2)9-13(3)19-15-10-18(22)16(11-17(15)21)20-14-7-5-4-6-8-14/h4-8,10-13,19-20H,9H2,1-3H3
Instrument: Exploris 240 Orbitrap Thermo Scientific
Instrument type: LC-ESI-QFT
Ms type: MS2
Ion mode: POSITIVE
Ionization: ESI
Fragmentation mode: HCD
Collision energy: 180 % (nominal)
Resolution: 17500
Column name: XBridge C18 3.5um, 2.1x50mm, Waters
Retention time: 11.329 min
Base peak: 299.175
Precursor m/z: 299.1754
Precursor type: [M+H]+
m/z	relative intensity	assigned
51.0229	975	C4H3+
53.0385	384	C4H5+
54.0337	270	C3H4N+
65.0385	442	C5H5+
66.0339	153	C4H4N+
66.0463	203	C5H6+
67.0418	81	C4H5N+
68.0131	333	C3H2NO+
77.0385	999	C6H5+
78.0464	70	C6H6+
81.0446	56	C4H5N2+
82.0527	217	C4H6N2+
89.0385	440	C7H5+
91.0541	392	C7H7+
93.0573	378	C6H7N+
95.049	472	C6H7O+
105.0447	363	C6H5N2+
115.0542	491	C9H7+
116.0494	64	C8H6N+
128.0492	105	C9H6N+
129.0449	59	C8H5N2+
