Mass spectrum: 2-(3,4-Dihydroxyphenyl)Chroman-3,5,7-Triol; LC-ESI-QFT; MS2; CE: 45%; R=17500; [M+H]+
Name: 2-(3,4-Dihydroxyphenyl)Chroman-3,5,7-Triol
Name: 2-(3,4-dihydroxyphenyl)-3,4-dihydro-2H-1-benzopyran-3,5,7-triol
Name: 2-(3,4-dihydroxyphenyl)-3,4-dihydro-2H-chromene-3,5,7-triol
Formula: C15H14O6
Exact mass: 290.0790382
SMILES: C1C(C(OC2=CC(=CC(=C21)O)O)C3=CC(=C(C=C3)O)O)O
InChI: InChI=1S/C15H14O6/c16-8-4-11(18)9-6-13(20)15(21-14(9)5-8)7-1-2-10(17)12(19)3-7/h1-5,13,15-20H,6H2
Instrument: Exploris 240 Orbitrap Thermo Scientific
Instrument type: LC-ESI-QFT
Ms type: MS2
Ion mode: POSITIVE
Ionization: ESI
Fragmentation mode: HCD
Collision energy: 45 % (nominal)
Resolution: 17500
Column name: XBridge C18 3.5um, 2.1x50mm, Waters
Retention time: 2.894 min
Base peak: 291.0862
Precursor m/z: 291.0863
Precursor type: [M+H]+
m/z	relative intensity	assigned
55.0177	7	C3H3O+
67.0541	4	C5H7+
83.049	6	C5H7O+
95.0491	26	C6H7O+
119.0491	34	C8H7O+
123.044	516	C7H7O2+
127.0389	8	C6H7O3+
135.0444	8	C8H7O2+
137.0596	10	C8H9O2+
139.039	999	C7H7O3+
143.0491	18	C10H7O+
147.044	221	C9H7O2+
151.0386	24	C8H7O3+
151.0754	5	C9H11O2+
153.0543	7	C8H9O3+
161.0597	98	C10H9O2+
163.039	15	C9H7O3+
165.0544	81	C9H9O3+
169.0494	12	C8H9O4+
179.0703	71	C10H11O3+
181.0495	11	C9H9O4+
189.0544	25	C11H9O3+
207.0651	148	C11H11O4+
