Mass spectrum: 6PPD; LC-ESI-QFT; MS2; CE: 180%; R=17500; [M+H]+
Name: 6PPD
Name: N-(1,3-Dimethylbutyl)-N`-phenyl-p-phenylenediamine
Name: 4-N-(4-methylpentan-2-yl)-1-N-phenylbenzene-1,4-diamine
Formula: C18H24N2
Exact mass: 268.1939
SMILES: CC(C)CC(C)NC1=CC=C(C=C1)NC2=CC=CC=C2
InChI: InChI=1S/C18H24N2/c1-14(2)13-15(3)19-17-9-11-18(12-10-17)20-16-7-5-4-6-8-16/h4-12,14-15,19-20H,13H2,1-3H3
Instrument: Exploris 240 Orbitrap Thermo Scientific
Instrument type: LC-ESI-QFT
Ms type: MS2
Ion mode: POSITIVE
Ionization: ESI
Fragmentation mode: HCD
Collision energy: 180 % (nominal)
Resolution: 17500
Column name: XBridge C18 3.5um, 2.1x50mm, Waters
Retention time: 7.278 min
Base peak: 269.2008
Precursor m/z: 269.2012
Precursor type: [M+H]+
m/z	relative intensity	assigned
53.0386	283	C4H5+
65.0385	115	C5H5+
66.0465	105	C5H6+
80.0495	999	C5H6N+
93.0573	58	C6H7N+
107.0603	226	C6H7N2+
139.0544	89	C11H7+
202.0778	274	C16H10+
