Mass spectrum: DG; LC-ESI-QFT; MS2; CE: 150%; R=17500; [M+H]+
Name: DG
Name: Dodecyl gallate
Name: dodecyl 3,4,5-trihydroxybenzoate
Formula: C19H30O5
Exact mass: 338.2093
SMILES: CCCCCCCCCCCCOC(=O)C1=CC(=C(C(=C1)O)O)O
InChI: InChI=1S/C19H30O5/c1-2-3-4-5-6-7-8-9-10-11-12-24-19(23)15-13-16(20)18(22)17(21)14-15/h13-14,20-22H,2-12H2,1H3
Instrument: Exploris 240 Orbitrap Thermo Scientific
Instrument type: LC-ESI-QFT
Ms type: MS2
Ion mode: POSITIVE
Ionization: ESI
Fragmentation mode: HCD
Collision energy: 150 % (nominal)
Resolution: 17500
Column name: XBridge C18 3.5um, 2.1x50mm, Waters
Retention time: 15.167 min
Base peak: 339.2164
Precursor m/z: 339.2166
Precursor type: [M+H]+
m/z	relative intensity	assigned
50.015	207	C4H2+
51.0229	689	C4H3+
52.0309	85	C4H4+
53.0023	107	C3HO+
53.0386	721	C4H5+
55.0179	444	C3H3O+
69.0337	109	C4H5O+
79.0179	283	C5H3O+
81.0334	851	C5H5O+
97.0284	58	C5H5O2+
107.0127	127	C6H3O2+
202.0777	999	C16H10+
