Mass spectrum: Tempo; LC-ESI-QFT; MS2; CE: 90%; R=17500; [M+H]+
Name: Tempo
Name: 2,2,6,6-Tetramethyl-1-piperidinyloxy
Formula: C9H18NO
Exact mass: 156.138839198
SMILES: CC1(CCCC(N1[O])(C)C)C
InChI: InChI=1S/C9H18NO/c1-8(2)6-5-7-9(3,4)10(8)11/h5-7H2,1-4H3
Instrument: Exploris 240 Orbitrap Thermo Scientific
Instrument type: LC-ESI-QFT
Ms type: MS2
Ion mode: POSITIVE
Ionization: ESI
Fragmentation mode: HCD
Collision energy: 90 % (nominal)
Resolution: 17500
Column name: XBridge C18 3.5um, 2.1x50mm, Waters
Retention time: 7.067 min
Base peak: 142.1225
Precursor m/z: 157.1461
Precursor type: [M+H]+
m/z	relative intensity	assigned
41.0386	83	C3H5+
42.0338	23	C2H4N+
43.0178	20	C2H3O+
43.0542	15	C3H7+
55.0542	77	C4H7+
56.0495	42	C3H6N+
57.0574	26	C3H7N+
57.0698	19	C4H9+
58.0652	15	C3H8N+
60.0444	12	C2H6NO+
67.0542	131	C5H7+
68.0494	9	C4H6N+
69.0699	999	C5H9+
70.065	10	C4H8N+
71.0492	8	C4H7O+
72.0809	13	C4H10N+
74.06	99	C3H8NO+
79.0542	13	C6H7+
81.0698	51	C6H9+
82.065	15	C5H8N+
83.0492	13	C5H7O+
83.0856	6	C6H11+
84.0806	37	C5H10N+
86.06	249	C4H8NO+
93.0697	9	C7H9+
94.065	8	C6H8N+
96.0808	33	C6H10N+
97.0643	7	C6H9O+
100.0758	27	C5H10NO+
107.0857	6	C8H11+
109.1011	418	C8H13+
110.0963	37	C7H12N+
124.112	16	C8H14N+
125.1198	20	C8H15N+
142.1226	842	C8H16NO+
