Mass spectrum: AO626; LC-ESI-QFT; MS2; CE: 75%; R=17500; [M+H]+
Name: AO626
Name: 3,9-Bis(2,4-di-tert-butylphenoxy)-2,4,8,10-tetraoxa-3,9-diphosphaspiro[5.5]undecane
Name: 3,9-bis(2,4-ditert-butylphenoxy)-2,4,8,10-tetraoxa-3,9-diphosphaspiro[5.5]undecane
Formula: C33H50O6P2
Exact mass: 604.3083
SMILES: CC(C)(C)C1=CC(=C(C=C1)OP2OCC3(CO2)COP(OC3)OC4=C(C=C(C=C4)C(C)(C)C)C(C)(C)C)C(C)(C)C
InChI: InChI=1S/C33H50O6P2/c1-29(2,3)23-13-15-27(25(17-23)31(7,8)9)38-40-34-19-33(20-35-40)21-36-41(37-22-33)39-28-16-14-24(30(4,5)6)18-26(28)32(10,11)12/h13-18H,19-22H2,1-12H3
Instrument: Exploris 240 Orbitrap Thermo Scientific
Instrument type: LC-ESI-QFT
Ms type: MS2
Ion mode: POSITIVE
Ionization: ESI
Fragmentation mode: HCD
Collision energy: 75 % (nominal)
Resolution: 17500
Column name: XBridge C18 3.5um, 2.1x50mm, Waters
Retention time: 21.797 min
Base peak: 163.9764
Precursor m/z: 605.3155
Precursor type: [M+H]+
m/z	relative intensity	assigned
65.0387	94	C5H5+
67.0541	142	C5H7+
79.0545	58	C6H7+
82.9894	61	H4O3P+
83.049	376	C5H7O+
91.0542	741	C7H7+
95.0489	221	C6H7O+
101.0153	70	C4H6OP+
104.062	132	C8H8+
105.0697	453	C8H9+
115.0542	147	C9H7+
117.0698	399	C9H9+
119.0259	85	C4H8O2P+
119.0854	383	C9H11+
128.062	307	C10H8+
129.0699	206	C10H9+
131.049	59	C9H7O+
131.0857	332	C10H11+
132.0933	322	C10H12+
141.0101	109	C6H6O2P+
141.0699	551	C11H9+
142.078	233	C11H10+
143.0851	178	C11H11+
144.0572	109	C10H8O+
145.0648	61	C10H9O+
147.0204	824	C5H8O3P+
147.0803	144	C10H11O+
147.1167	999	C11H15+
155.0855	83	C12H11+
159.0206	111	C6H8O3P+
159.0804	452	C11H11O+
161.0959	73	C11H13O+
165.031	81	C5H10O4P+
167.0858	80	C13H11+
175.0311	54	C10H8OP+
187.0307	175	C11H8OP+
187.1119	73	C13H15O+
205.041	209	C11H10O2P+
211.0519	60	C10H12O3P+
215.144	59	C15H19O+
223.0517	585	C11H12O3P+
243.174	63	C17H23O+
