Mass spectrum: 3,5-Di-Tert-Butyl-4-Hydroxybenzoic Acid; LC-ESI-QFT; MS2; CE: 150%; R=17500; [M+H]+
Name: 3,5-Di-Tert-Butyl-4-Hydroxybenzoic Acid
Name: 3,5-ditert-butyl-4-hydroxybenzoic acid
Formula: C15H22O3
Exact mass: 250.1568946
SMILES: CC(C)(C)C1=CC(=CC(=C1O)C(C)(C)C)C(=O)O
InChI: InChI=1S/C15H22O3/c1-14(2,3)10-7-9(13(17)18)8-11(12(10)16)15(4,5)6/h7-8,16H,1-6H3,(H,17,18)
Instrument: Exploris 240 Orbitrap Thermo Scientific
Instrument type: LC-ESI-QFT
Ms type: MS2
Ion mode: POSITIVE
Ionization: ESI
Fragmentation mode: HCD
Collision energy: 150 % (nominal)
Resolution: 17500
Column name: XBridge C18 3.5um, 2.1x50mm, Waters
Retention time: 11.027 min
Base peak: 251.1641
Precursor m/z: 251.1642
Precursor type: [M+H]+
m/z	relative intensity	assigned
51.0228	223	C4H3+
57.07	999	C4H9+
65.0387	265	C5H5+
77.0387	609	C6H5+
91.0542	513	C7H7+
