Mass spectrum: BHT-OH; LC-ESI-QFT; MS2; CE: 90%; R=17500; [M+H]+
Name: BHT-OH
Name: 2,6-ditert-butyl-4-hydroxy-4-methylcyclohexa-2,5-dien-1-one
Formula: C15H24O2
Exact mass: 236.17763
SMILES: CC1(C=C(C(=O)C(=C1)C(C)(C)C)C(C)(C)C)O
InChI: InChI=1S/C15H24O2/c1-13(2,3)10-8-15(7,17)9-11(12(10)16)14(4,5)6/h8-9,17H,1-7H3
Instrument: Exploris 240 Orbitrap Thermo Scientific
Instrument type: LC-ESI-QFT
Ms type: MS2
Ion mode: POSITIVE
Ionization: ESI
Fragmentation mode: HCD
Collision energy: 90 % (nominal)
Resolution: 17500
Column name: XBridge C18 3.5um, 2.1x50mm, Waters
Retention time: 10.618 min
Base peak: 237.1847
Precursor m/z: 237.1849
Precursor type: [M+H]+
m/z	relative intensity	assigned
53.0386	11	C4H5+
55.0542	320	C4H7+
57.0699	999	C4H9+
59.0491	49	C3H7O+
67.0541	46	C5H7+
69.0698	34	C5H9+
77.0388	24	C6H5+
79.0541	87	C6H7+
81.0697	20	C6H9+
83.049	83	C5H7O+
83.0856	100	C6H11+
91.0545	30	C7H7+
93.0701	28	C7H9+
95.0857	44	C7H11+
97.0649	78	C6H9O+
105.0699	60	C8H9+
107.0492	24	C7H7O+
119.0859	25	C9H11+
121.1012	53	C9H13+
122.073	17	C8H10O+
123.0805	37	C8H11O+
125.0595	64	C7H9O2+
139.1118	42	C9H15O+
