Mass spectrum: 3,5-Di-Tert-Butyl-4-Hydroxybenzoic Acid; LC-ESI-QFT; MS2; CE: 90%; R=17500; [M-H]-
Name: 3,5-Di-Tert-Butyl-4-Hydroxybenzoic Acid
Name: 3,5-ditert-butyl-4-hydroxybenzoic acid
Formula: C15H22O3
Exact mass: 250.156894564
SMILES: CC(C)(C)C1=CC(=CC(=C1O)C(C)(C)C)C(=O)O
InChI: InChI=1S/C15H22O3/c1-14(2,3)10-7-9(13(17)18)8-11(12(10)16)15(4,5)6/h7-8,16H,1-6H3,(H,17,18)
Instrument: Exploris 240 Orbitrap Thermo Scientific
Instrument type: LC-ESI-QFT
Ms type: MS2
Ion mode: NEGATIVE
Ionization: ESI
Fragmentation mode: HCD
Collision energy: 90 % (nominal)
Resolution: 17500
Column name: XBridge C18 3.5um, 2.1x50mm, Waters
Retention time: 10.995 min
Base peak: 249.1497
Precursor m/z: 249.1496
Precursor type: [M-H]-
m/z	relative intensity	assigned
149.0976	42	C10H13O-
189.1284	232	C13H17O-
205.1599	999	C14H21O-
