Mass spectrum: Taxifolin; LC-ESI-QFT; MS2; CE: 120%; R=17500; [M+H]+
Name: Taxifolin
Name: 3,5,7,3',4'-Pentahydroxyflavanone
Name: 2-(3,4-dihydroxyphenyl)-3,5,7-trihydroxy-2,3-dihydrochromen-4-one
Formula: C15H12O7
Exact mass: 304.0583027
SMILES: C1=CC(=C(C=C1C2C(C(=O)C3=C(C=C(C=C3O2)O)O)O)O)O
InChI: InChI=1S/C15H12O7/c16-7-4-10(19)12-11(5-7)22-15(14(21)13(12)20)6-1-2-8(17)9(18)3-6/h1-5,14-19,21H
Instrument: Exploris 240 Orbitrap Thermo Scientific
Instrument type: LC-ESI-QFT
Ms type: MS2
Ion mode: POSITIVE
Ionization: ESI
Fragmentation mode: HCD
Collision energy: 120 % (nominal)
Resolution: 17500
Column name: XBridge C18 3.5um, 2.1x50mm, Waters
Retention time: 4.381 min
Base peak: 305.0653
Precursor m/z: 305.0656
Precursor type: [M+H]+
m/z	relative intensity	assigned
50.0151	48	C4H2+
51.0229	539	C4H3+
53.0385	136	C4H5+
55.0178	182	C3H3O+
63.0229	68	C5H3+
65.0386	999	C5H5+
67.0177	78	C4H3O+
67.0543	145	C5H7+
68.9971	691	C3HO2+
69.0335	216	C4H5O+
77.0385	813	C6H5+
79.0177	88	C5H3O+
81.0334	68	C5H5O+
89.0385	269	C7H5+
91.0544	58	C7H7+
93.0336	55	C6H5O+
95.0491	235	C6H7O+
97.0284	45	C5H5O2+
103.0545	67	C8H7+
105.0335	292	C7H5O+
107.0491	35	C7H7O+
115.0542	256	C9H7+
121.0285	212	C7H5O2+
123.0441	507	C7H7O2+
127.0546	33	C10H7+
128.0621	397	C10H8+
129.07	45	C10H9+
131.0492	66	C9H7O+
137.0236	28	C7H5O3+
139.0542	237	C11H7+
147.0446	50	C9H7O2+
153.0181	108	C7H5O4+
157.0644	52	C11H9O+
184.0514	35	C12H8O2+
