Mass spectrum: DBDPA; LC-ESI-QFT; MS2; CE: 75%; R=17500; [M+H]+
Name: DBDPA
Name: Bis(4-tert-butylphenyl)amine
Name: 4-tert-butyl-N-(4-tert-butylphenyl)aniline
Formula: C20H27N
Exact mass: 281.214349864
SMILES: CC(C)(C)C1=CC=C(C=C1)NC2=CC=C(C=C2)C(C)(C)C
InChI: InChI=1S/C20H27N/c1-19(2,3)15-7-11-17(12-8-15)21-18-13-9-16(10-14-18)20(4,5)6/h7-14,21H,1-6H3
Instrument: Exploris 240 Orbitrap Thermo Scientific
Instrument type: LC-ESI-QFT
Ms type: MS2
Ion mode: POSITIVE
Ionization: ESI
Fragmentation mode: HCD
Collision energy: 75 % (nominal)
Resolution: 17500
Column name: XBridge C18 3.5um, 2.1x50mm, Waters
Retention time: 16.524 min
Base peak: 282.2213
Precursor m/z: 282.2216
Precursor type: [M+H]+
m/z	relative intensity	assigned
57.0699	128	C4H9+
91.0541	10	C7H7+
92.0494	8	C6H6N+
93.0572	4	C6H7N+
105.0698	4	C8H9+
106.0652	28	C7H8N+
108.0807	26	C7H10N+
120.081	9	C8H10N+
133.0885	14	C9H11N+
134.0964	999	C9H12N+
148.1123	21	C10H14N+
149.1195	17	C10H15N+
170.0963	46	C12H12N+
210.1273	15	C15H16N+
226.1589	50	C16H20N+
266.1905	8	C19H24N+
282.2216	142	C20H28N+
