Mass spectrum: UV120; LC-ESI-QFT; MS2; CE: 120%; R=17500; [M+H]+
Name: UV120
Name: 2,4-Di-tert-butylphenyl 3',5'-di-tert-butyl-4'-hydroxybenzoate
Name: (2,4-ditert-butylphenyl) 3,5-ditert-butyl-4-hydroxybenzoate
Formula: C29H42O3
Exact mass: 438.3133952
SMILES: CC(C)(C)C1=CC(=C(C=C1)OC(=O)C2=CC(=C(C(=C2)C(C)(C)C)O)C(C)(C)C)C(C)(C)C
InChI: InChI=1S/C29H42O3/c1-26(2,3)19-13-14-23(20(17-19)27(4,5)6)32-25(31)18-15-21(28(7,8)9)24(30)22(16-18)29(10,11)12/h13-17,30H,1-12H3
Instrument: Exploris 240 Orbitrap Thermo Scientific
Instrument type: LC-ESI-QFT
Ms type: MS2
Ion mode: POSITIVE
Ionization: ESI
Fragmentation mode: HCD
Collision energy: 120 % (nominal)
Resolution: 17500
Column name: XBridge C18 3.5um, 2.1x50mm, Waters
Retention time: 18.102 min
Base peak: 439.3203
Precursor m/z: 439.3207
Precursor type: [M+H]+
m/z	relative intensity	assigned
53.0385	65	C4H5+
55.0177	15	C3H3O+
55.0542	137	C4H7+
57.0699	202	C4H9+
65.0387	61	C5H5+
67.0543	56	C5H7+
77.0386	198	C6H5+
79.0542	303	C6H7+
81.0698	24	C6H9+
91.0542	999	C7H7+
93.0698	147	C7H9+
95.0491	67	C6H7O+
95.0853	15	C7H11+
103.0541	150	C8H7+
105.0699	441	C8H9+
106.0781	23	C8H10+
107.0493	60	C7H7O+
107.0854	28	C8H11+
108.0574	19	C7H8O+
115.0542	213	C9H7+
116.0617	69	C9H8+
117.07	170	C9H9+
119.0494	79	C8H7O+
119.0856	204	C9H11+
121.0651	50	C8H9O+
123.0804	42	C8H11O+
128.062	92	C10H8+
129.0696	120	C10H9+
130.0777	49	C10H10+
131.0854	92	C10H11+
133.065	57	C9H9O+
133.1011	22	C10H13+
135.0807	32	C9H11O+
141.0699	41	C11H9+
142.078	39	C11H10+
144.0571	16	C10H8O+
145.0649	38	C10H9O+
145.1012	16	C11H13+
147.0805	107	C10H11O+
147.1174	30	C11H15+
149.0962	51	C10H13O+
159.0804	131	C11H11O+
160.0882	49	C11H12O+
174.1047	21	C12H14O+
175.1121	54	C12H15O+
