Mass spectrum: Taxifolin; LC-ESI-QFT; MS2; CE: 90%; R=17500; [M+H]+
Name: Taxifolin
Name: 3,5,7,3',4'-Pentahydroxyflavanone
Name: 2-(3,4-dihydroxyphenyl)-3,5,7-trihydroxy-2,3-dihydrochromen-4-one
Formula: C15H12O7
Exact mass: 304.0583027
SMILES: C1=CC(=C(C=C1C2C(C(=O)C3=C(C=C(C=C3O2)O)O)O)O)O
InChI: InChI=1S/C15H12O7/c16-7-4-10(19)12-11(5-7)22-15(14(21)13(12)20)6-1-2-8(17)9(18)3-6/h1-5,14-19,21H
Instrument: Exploris 240 Orbitrap Thermo Scientific
Instrument type: LC-ESI-QFT
Ms type: MS2
Ion mode: POSITIVE
Ionization: ESI
Fragmentation mode: HCD
Collision energy: 90 % (nominal)
Resolution: 17500
Column name: XBridge C18 3.5um, 2.1x50mm, Waters
Retention time: 4.381 min
Base peak: 305.0653
Precursor m/z: 305.0656
Precursor type: [M+H]+
m/z	relative intensity	assigned
51.0229	52	C4H3+
53.0386	41	C4H5+
55.0179	108	C3H3O+
65.0386	431	C5H5+
67.0178	89	C4H3O+
67.0542	134	C5H7+
68.9971	318	C3HO2+
69.0335	160	C4H5O+
77.0386	252	C6H5+
79.018	32	C5H3O+
81.0335	25	C5H5O+
83.0127	37	C4H3O2+
89.0384	123	C7H5+
91.0543	37	C7H7+
93.0332	68	C6H5O+
95.0491	178	C6H7O+
97.0284	53	C5H5O2+
105.0335	243	C7H5O+
107.0492	58	C7H7O+
111.0076	21	C5H3O3+
111.0441	86	C6H7O2+
115.0542	79	C9H7+
117.0333	38	C8H5O+
121.0285	538	C7H5O2+
123.044	999	C7H7O2+
128.062	115	C10H8+
129.07	89	C10H9+
131.0496	36	C9H7O+
133.0279	80	C8H5O2+
135.0441	58	C8H7O2+
137.0234	33	C7H5O3+
139.0394	48	C7H7O3+
139.0543	107	C11H7+
141.0699	14	C11H9+
143.0489	21	C10H7O+
147.0439	51	C9H7O2+
149.0233	310	C8H5O3+
153.0183	568	C7H5O4+
157.0647	222	C11H9O+
163.0398	16	C9H7O3+
167.049	37	C12H7O+
168.0573	22	C12H8O+
171.0438	29	C11H7O2+
184.0517	33	C12H8O2+
185.06	115	C12H9O2+
213.0542	147	C13H9O3+
231.065	16	C13H11O4+
