Mass spectrum: (-)-Epigallocatechin Gallate; LC-ESI-QFT; MS2; CE: 30%; R=17500; [M-H]-
Name: (-)-Epigallocatechin Gallate
Name: Tea, ext.
Name: [5,7-dihydroxy-2-(3,4,5-trihydroxyphenyl)-3,4-dihydro-2H-chromen-3-yl] 3,4,5-trihydroxybenzoate
Formula: C22H18O11
Exact mass: 458.084911396
SMILES: C1C(C(OC2=CC(=CC(=C21)O)O)C3=CC(=C(C(=C3)O)O)O)OC(=O)C4=CC(=C(C(=C4)O)O)O
InChI: InChI=1S/C22H18O11/c23-10-5-12(24)11-7-18(33-22(31)9-3-15(27)20(30)16(28)4-9)21(32-17(11)6-10)8-1-13(25)19(29)14(26)2-8/h1-6,18,21,23-30H,7H2
Instrument: Exploris 240 Orbitrap Thermo Scientific
Instrument type: LC-ESI-QFT
Ms type: MS2
Ion mode: NEGATIVE
Ionization: ESI
Fragmentation mode: HCD
Collision energy: 30 % (nominal)
Resolution: 17500
Column name: XBridge C18 3.5um, 2.1x50mm, Waters
Retention time: 3.421 min
Base peak: 457.0777
Precursor m/z: 457.0776
Precursor type: [M-H]-
m/z	relative intensity	assigned
125.0244	123	C6H5O3-
137.0242	4	C7H5O3-
161.0244	39	C9H5O3-
165.0194	6	C8H5O4-
166.998	2	C7H3O5-
167.0355	4	C8H7O4-
168.0063	3	C7H4O5-
169.0142	999	C7H5O5-
179.0347	10	C9H7O4-
193.0143	18	C9H5O5-
201.0556	2	C12H9O3-
219.0667	6	C12H11O4-
221.0462	2	C11H9O5-
261.0763	5	C14H13O5-
269.0449	8	C15H9O5-
287.0562	7	C15H11O6-
305.0668	93	C15H13O7-
319.0449	3	C15H11O8-
