Mass spectrum: Taxifolin; LC-ESI-QFT; MS2; CE: 45%; R=17500; [M-H]-
Name: Taxifolin
Name: 3,5,7,3`,4`-Pentahydroxyflavanone
Name: 2-(3,4-dihydroxyphenyl)-3,5,7-trihydroxy-2,3-dihydrochromen-4-one
Formula: C15H12O7
Exact mass: 304.058302724
SMILES: C1=CC(=C(C=C1C2C(C(=O)C3=C(C=C(C=C3O2)O)O)O)O)O
InChI: InChI=1S/C15H12O7/c16-7-4-10(19)12-11(5-7)22-15(14(21)13(12)20)6-1-2-8(17)9(18)3-6/h1-5,14-19,21H
Instrument: Exploris 240 Orbitrap Thermo Scientific
Instrument type: LC-ESI-QFT
Ms type: MS2
Ion mode: NEGATIVE
Ionization: ESI
Fragmentation mode: HCD
Collision energy: 45 % (nominal)
Resolution: 17500
Column name: XBridge C18 3.5um, 2.1x50mm, Waters
Retention time: 4.371 min
Base peak: 303.0509
Precursor m/z: 303.051
Precursor type: [M-H]-
m/z	relative intensity	assigned
57.0346	56	C3H5O-
65.0032	17	C4HO-
83.0138	50	C4H3O2-
107.0134	19	C6H3O2-
108.0216	8	C6H4O2-
109.0295	30	C6H5O2-
121.0292	18	C7H5O2-
123.045	31	C7H7O2-
124.0169	10	C6H4O3-
125.0244	999	C6H5O3-
137.0243	13	C7H5O3-
139.0404	4	C7H7O3-
147.0453	10	C9H7O2-
149.0243	64	C8H5O3-
150.0325	39	C8H6O3-
151.0038	125	C7H3O4-
151.04	117	C8H7O3-
152.0115	117	C7H4O4-
153.0192	120	C7H5O4-
161.0245	13	C9H5O3-
161.0608	8	C10H9O2-
165.0555	4	C9H9O3-
172.0529	8	C11H8O2-
173.061	14	C11H9O2-
174.0327	26	C10H6O3-
175.04	170	C10H7O3-
176.0117	7	C9H4O4-
177.0192	89	C9H5O4-
178.9985	55	C8H3O5-
180.0063	27	C8H4O5-
181.0144	17	C8H5O5-
189.0556	67	C11H9O3-
191.0351	11	C10H7O4-
191.0715	6	C11H11O3-
193.0506	58	C10H9O4-
197.0606	5	C13H9O2-
199.0398	102	C12H7O3-
201.019	24	C11H5O4-
213.0557	17	C13H9O3-
215.0344	7	C12H7O4-
216.0426	22	C12H8O4-
217.0506	114	C12H9O4-
231.0666	19	C13H11O4-
235.0609	10	C12H11O5-
241.0504	55	C14H9O4-
243.0302	12	C13H7O5-
257.045	11	C14H9O5-
259.062	13	C14H11O5-
285.0403	88	C15H9O6-
