Mass spectrum: Dioxybenzone; LC-ESI-QFT; MS2; CE: 120%; R=17500; [M+H]+
Name: Dioxybenzone
Name: 2,2'-Dihydroxy-4-methoxybenzophenone
Name: (2-hydroxy-4-methoxyphenyl)-(2-hydroxyphenyl)methanone
Formula: C14H12O4
Exact mass: 244.0735589
SMILES: COC1=CC(=C(C=C1)C(=O)C2=CC=CC=C2O)O
InChI: InChI=1S/C14H12O4/c1-18-9-6-7-11(13(16)8-9)14(17)10-4-2-3-5-12(10)15/h2-8,15-16H,1H3
Instrument: Exploris 240 Orbitrap Thermo Scientific
Instrument type: LC-ESI-QFT
Ms type: MS2
Ion mode: POSITIVE
Ionization: ESI
Fragmentation mode: HCD
Collision energy: 120 % (nominal)
Resolution: 17500
Column name: XBridge C18 3.5um, 2.1x50mm, Waters
Retention time: 8.791 min
Base peak: 245.0806
Precursor m/z: 245.0808
Precursor type: [M+H]+
m/z	relative intensity	assigned
50.0152	6	C4H2+
51.023	10	C4H3+
52.0307	63	C4H4+
55.0178	17	C3H3O+
65.0386	999	C5H5+
67.0543	19	C5H7+
68.9973	13	C3HO2+
80.0256	43	C5H4O+
93.0336	71	C6H5O+
95.0491	114	C6H7O+
108.0206	80	C6H4O2+
111.0439	27	C6H7O2+
115.0543	5	C9H7+
121.0284	118	C7H5O2+
128.0624	18	C10H8+
139.0543	10	C11H7+
151.039	29	C8H7O3+
