Mass spectrum: TPHPi; LC-ESI-QFT; MS2; CE: 75%; R=17500; [M+H]+
Name: TPHPi
Name: triphenyl phosphite
Formula: C18H15O3P
Exact mass: 310.0759
SMILES: C1=CC=C(C=C1)OP(OC2=CC=CC=C2)OC3=CC=CC=C3
InChI: InChI=1S/C18H15O3P/c1-4-10-16(11-5-1)19-22(20-17-12-6-2-7-13-17)21-18-14-8-3-9-15-18/h1-15H
Instrument: Exploris 240 Orbitrap Thermo Scientific
Instrument type: LC-ESI-QFT
Ms type: MS2
Ion mode: POSITIVE
Ionization: ESI
Fragmentation mode: HCD
Collision energy: 75 % (nominal)
Resolution: 17500
Column name: XBridge C18 3.5um, 2.1x50mm, Waters
Retention time: 14.426 min
Base peak: 132.9581
Precursor m/z: 311.0832
Precursor type: [M+H]+
m/z	relative intensity	assigned
77.0387	347	C6H5+
95.0492	999	C6H7O+
152.0619	436	C12H8+
153.0701	313	C12H9+
199.0309	99	C12H8OP+
