Mass spectrum: 2-(3,4-Dihydroxyphenyl)Chroman-3,5,7-Triol; LC-ESI-QFT; MS2; CE: 120%; R=17500; [M+H]+
Name: 2-(3,4-Dihydroxyphenyl)Chroman-3,5,7-Triol
Name: 2-(3,4-dihydroxyphenyl)-3,4-dihydro-2H-1-benzopyran-3,5,7-triol
Name: 2-(3,4-dihydroxyphenyl)-3,4-dihydro-2H-chromene-3,5,7-triol
Formula: C15H14O6
Exact mass: 290.0790382
SMILES: C1C(C(OC2=CC(=CC(=C21)O)O)C3=CC(=C(C=C3)O)O)O
InChI: InChI=1S/C15H14O6/c16-8-4-11(18)9-6-13(20)15(21-14(9)5-8)7-1-2-10(17)12(19)3-7/h1-5,13,15-20H,6H2
Instrument: Exploris 240 Orbitrap Thermo Scientific
Instrument type: LC-ESI-QFT
Ms type: MS2
Ion mode: POSITIVE
Ionization: ESI
Fragmentation mode: HCD
Collision energy: 120 % (nominal)
Resolution: 17500
Column name: XBridge C18 3.5um, 2.1x50mm, Waters
Retention time: 2.894 min
Base peak: 291.0862
Precursor m/z: 291.0863
Precursor type: [M+H]+
m/z	relative intensity	assigned
50.0151	18	C4H2+
51.0229	287	C4H3+
53.0385	182	C4H5+
55.0179	285	C3H3O+
55.0542	61	C4H7+
65.0386	645	C5H5+
67.0178	130	C4H3O+
67.0543	108	C5H7+
68.9971	430	C3HO2+
69.0335	44	C4H5O+
71.0129	65	C3H3O2+
77.0386	666	C6H5+
79.0541	61	C6H7+
81.0337	49	C5H5O+
83.0493	63	C5H7O+
89.0385	19	C7H5+
91.0542	593	C7H7+
93.0333	61	C6H5O+
95.0491	218	C6H7O+
103.0543	70	C8H7+
105.0336	199	C7H5O+
105.07	49	C8H9+
111.0441	92	C6H7O2+
115.0543	346	C9H7+
119.0491	169	C8H7O+
123.044	999	C7H7O2+
131.0492	22	C9H7O+
139.0393	95	C7H7O3+
147.0447	48	C9H7O2+
