Mass spectrum: Gallic Acid; LC-ESI-QFT; MS2; CE: 45%; R=17500; [M-H]-
Name: Gallic Acid
Name: 3,4,5-trihydroxybenzoic acid
Formula: C7H6O5
Exact mass: 170.021523292
SMILES: C1=C(C=C(C(=C1O)O)O)C(=O)O
InChI: InChI=1S/C7H6O5/c8-4-1-3(7(11)12)2-5(9)6(4)10/h1-2,8-10H,(H,11,12)
Instrument: Exploris 240 Orbitrap Thermo Scientific
Instrument type: LC-ESI-QFT
Ms type: MS2
Ion mode: NEGATIVE
Ionization: ESI
Fragmentation mode: HCD
Collision energy: 45 % (nominal)
Resolution: 17500
Column name: XBridge C18 3.5um, 2.1x50mm, Waters
Retention time: 1.603 min
Base peak: 169.0142
Precursor m/z: 169.0142
Precursor type: [M-H]-
m/z	relative intensity	assigned
69.0345	20	C4H5O-
79.019	20	C5H3O-
81.0346	34	C5H5O-
97.0295	26	C5H5O2-
107.0136	11	C6H3O2-
124.0165	6	C6H4O3-
125.0245	999	C6H5O3-
169.0143	197	C7H5O5-
