Mass spectrum: Drometrizole; LC-ESI-QFT; MS2; CE: 150%; R=17500; [M+H]+
Name: Drometrizole
Name: 2-(benzotriazol-2-yl)-4-methylphenol
Formula: C13H11N3O
Exact mass: 225.090212
SMILES: CC1=CC(=C(C=C1)O)N2N=C3C=CC=CC3=N2
InChI: InChI=1S/C13H11N3O/c1-9-6-7-13(17)12(8-9)16-14-10-4-2-3-5-11(10)15-16/h2-8,17H,1H3
Instrument: Exploris 240 Orbitrap Thermo Scientific
Instrument type: LC-ESI-QFT
Ms type: MS2
Ion mode: POSITIVE
Ionization: ESI
Fragmentation mode: HCD
Collision energy: 150 % (nominal)
Resolution: 17500
Column name: XBridge C18 3.5um, 2.1x50mm, Waters
Retention time: 13.562 min
Base peak: 226.0974
Precursor m/z: 226.0975
Precursor type: [M+H]+
m/z	relative intensity	assigned
50.0151	90	C4H2+
51.0229	727	C4H3+
52.0308	251	C4H4+
53.0386	394	C4H5+
55.0181	33	C3H3O+
63.0229	20	C5H3+
65.0386	698	C5H5+
77.0386	999	C6H5+
78.034	105	C5H4N+
78.0464	50	C6H6+
79.0417	197	C5H5N+
79.0543	119	C6H7+
80.0495	43	C5H6N+
81.0337	24	C5H5O+
92.0497	59	C6H6N+
94.0416	38	C6H6O+
95.0492	322	C6H7O+
102.0464	24	C8H6+
105.0447	647	C6H5N2+
115.0543	45	C9H7+
120.056	35	C6H6N3+
126.0467	15	C10H6+
128.0495	40	C9H6N+
128.0624	49	C10H8+
152.0624	25	C12H8+
154.0646	92	C11H8N+
155.0609	98	C10H7N2+
164.0502	17	C12H6N+
167.0726	32	C12H9N+
181.0765	41	C12H9N2+
