Mass spectrum: AO626; LC-ESI-QFT; MS2; CE: 45%; R=17500; [M+H]+
Name: AO626
Name: 3,9-Bis(2,4-di-tert-butylphenoxy)-2,4,8,10-tetraoxa-3,9-diphosphaspiro[5.5]undecane
Name: 3,9-bis(2,4-ditert-butylphenoxy)-2,4,8,10-tetraoxa-3,9-diphosphaspiro[5.5]undecane
Formula: C33H50O6P2
Exact mass: 604.3083
SMILES: CC(C)(C)C1=CC(=C(C=C1)OP2OCC3(CO2)COP(OC3)OC4=C(C=C(C=C4)C(C)(C)C)C(C)(C)C)C(C)(C)C
InChI: InChI=1S/C33H50O6P2/c1-29(2,3)23-13-15-27(25(17-23)31(7,8)9)38-40-34-19-33(20-35-40)21-36-41(37-22-33)39-28-16-14-24(30(4,5)6)18-26(28)32(10,11)12/h13-18H,19-22H2,1-12H3
Instrument: Exploris 240 Orbitrap Thermo Scientific
Instrument type: LC-ESI-QFT
Ms type: MS2
Ion mode: POSITIVE
Ionization: ESI
Fragmentation mode: HCD
Collision energy: 45 % (nominal)
Resolution: 17500
Column name: XBridge C18 3.5um, 2.1x50mm, Waters
Retention time: 21.797 min
Base peak: 163.9764
Precursor m/z: 605.3155
Precursor type: [M+H]+
m/z	relative intensity	assigned
83.0489	55	C5H7O+
91.0541	53	C7H7+
141.0695	73	C11H9+
143.0852	81	C11H11+
147.0204	178	C5H8O3P+
147.1167	427	C11H15+
159.0204	107	C6H8O3P+
159.0803	217	C11H11O+
165.0311	92	C5H10O4P+
197.133	54	C15H17+
205.0408	79	C11H10O2P+
211.0522	62	C10H12O3P+
213.1638	80	C16H21+
215.143	212	C15H19O+
223.0518	999	C11H12O3P+
241.0622	169	C11H14O4P+
243.1752	57	C17H23O+
271.2056	250	C19H27O+
279.1145	916	C15H20O3P+
297.1255	101	C15H22O4P+
