Mass spectrum: PBNA; LC-ESI-QFT; MS2; CE: 75%; R=17500; [M+H]+
Name: PBNA
Name: N-Phenyl-2-naphthylamine
Name: N-phenylnaphthalen-2-amine
Formula: C16H13N
Exact mass: 219.1048
SMILES: C1=CC=C(C=C1)NC2=CC3=CC=CC=C3C=C2
InChI: InChI=1S/C16H13N/c1-2-8-15(9-3-1)17-16-11-10-13-6-4-5-7-14(13)12-16/h1-12,17H
Instrument: Exploris 240 Orbitrap Thermo Scientific
Instrument type: LC-ESI-QFT
Ms type: MS2
Ion mode: POSITIVE
Ionization: ESI
Fragmentation mode: HCD
Collision energy: 75 % (nominal)
Resolution: 17500
Column name: XBridge C18 3.5um, 2.1x50mm, Waters
Retention time: 12.080 min
Base peak: 220.1117
Precursor m/z: 220.1121
Precursor type: [M+H]+
m/z	relative intensity	assigned
92.0494	92	C6H6N+
93.0572	79	C6H7N+
115.0541	106	C9H7+
128.062	66	C10H8+
143.0728	999	C10H9N+
202.0778	105	C16H10+
