Mass spectrum: DPPD; LC-ESI-QFT; MS2; CE: 45%; R=17500; [M+H]+
Name: DPPD
Name: 1-N,4-N-diphenylbenzene-1,4-diamine
Formula: C18H16N2
Exact mass: 260.1313485
SMILES: C1=CC=C(C=C1)NC2=CC=C(C=C2)NC3=CC=CC=C3
InChI: InChI=1S/C18H16N2/c1-3-7-15(8-4-1)19-17-11-13-18(14-12-17)20-16-9-5-2-6-10-16/h1-14,19-20H
Instrument: Exploris 240 Orbitrap Thermo Scientific
Instrument type: LC-ESI-QFT
Ms type: MS2
Ion mode: POSITIVE
Ionization: ESI
Fragmentation mode: HCD
Collision energy: 45 % (nominal)
Resolution: 17500
Column name: XBridge C18 3.5um, 2.1x50mm, Waters
Retention time: 11.735 min
Base peak: 261.1383
Precursor m/z: 261.1386
Precursor type: [M+H]+
m/z	relative intensity	assigned
168.0806	33	C12H10N+
169.0886	99	C12H11N+
183.0917	117	C12H11N2+
184.0994	999	C12H12N2+
261.1377	273	C18H17N2+
