Mass spectrum: Silibinin; LC-ESI-QFT; MS2; CE: 30%; R=17500; [M-H]-
Name: Silibinin
Name: Silymarin
Name: 3,5,7-trihydroxy-2-[3-(4-hydroxy-3-methoxyphenyl)-2-(hydroxymethyl)-2,3-dihydro-1,4-benzodioxin-6-yl]-2,3-dihydrochromen-4-one
Formula: C25H22O10
Exact mass: 482.121296904
SMILES: COC1=C(C=CC(=C1)C2C(OC3=C(O2)C=C(C=C3)C4C(C(=O)C5=C(C=C(C=C5O4)O)O)O)CO)O
InChI: InChI=1S/C25H22O10/c1-32-17-6-11(2-4-14(17)28)24-20(10-26)33-16-5-3-12(7-18(16)34-24)25-23(31)22(30)21-15(29)8-13(27)9-19(21)35-25/h2-9,20,23-29,31H,10H2,1H3
Instrument: Exploris 240 Orbitrap Thermo Scientific
Instrument type: LC-ESI-QFT
Ms type: MS2
Ion mode: NEGATIVE
Ionization: ESI
Fragmentation mode: HCD
Collision energy: 30 % (nominal)
Resolution: 17500
Column name: XBridge C18 3.5um, 2.1x50mm, Waters
Retention time: 6.163 min
Base peak: 481.1138
Precursor m/z: 481.114
Precursor type: [M-H]-
m/z	relative intensity	assigned
83.0137	17	C4H3O2-
125.0243	999	C6H5O3-
151.0035	83	C7H3O4-
152.0115	136	C7H4O4-
153.0192	26	C7H5O4-
165.0192	19	C8H5O4-
177.0198	11	C9H5O4-
178.9985	254	C8H3O5-
179.071	55	C10H11O3-
180.0062	255	C8H4O5-
181.0146	34	C8H5O5-
187.0396	12	C11H7O3-
191.035	8	C10H7O4-
213.0559	32	C13H9O3-
215.0348	66	C12H7O4-
216.0426	13	C12H8O4-
229.0506	63	C13H9O4-
257.0454	186	C14H9O5-
258.0534	63	C14H10O5-
259.0607	25	C14H11O5-
273.0403	103	C14H9O6-
274.0482	37	C14H10O6-
283.0246	101	C15H7O6-
284.0321	72	C15H8O6-
285.0414	42	C15H9O6-
301.0353	710	C15H9O7-
423.1081	99	C23H19O8-
435.1081	109	C24H19O8-
437.1228	24	C24H21O8-
451.1032	105	C24H19O9-
453.1188	335	C24H21O9-
463.103	214	C25H19O9-
481.1138	378	C25H21O10-
