Mass spectrum: AO3114; LC-ESI-QFT; MS2; CE: 120%; R=17500; [M+H]+
Name: AO3114
Name: 1,3,5-Tris(3,5-di-tert-butyl-4-hydroxybenzyl)-1,3,5-triazinane-2,4,6-trione
Name: 1,3,5-tris[(3,5-ditert-butyl-4-hydroxyphenyl)methyl]-1,3,5-triazinane-2,4,6-trione
Formula: C48H69N3O6
Exact mass: 783.5186
SMILES: CC(C)(C)C1=CC(=CC(=C1O)C(C)(C)C)CN2C(=O)N(C(=O)N(C2=O)CC3=CC(=C(C(=C3)C(C)(C)C)O)C(C)(C)C)CC4=CC(=C(C(=C4)C(C)(C)C)O)C(C)(C)C
InChI: InChI=1S/C48H69N3O6/c1-43(2,3)31-19-28(20-32(37(31)52)44(4,5)6)25-49-40(55)50(26-29-21-33(45(7,8)9)38(53)34(22-29)46(10,11)12)42(57)51(41(49)56)27-30-23-35(47(13,14)15)39(54)36(24-30)48(16,17)18/h19-24,52-54H,25-27H2,1-18H3
Instrument: Exploris 240 Orbitrap Thermo Scientific
Instrument type: LC-ESI-QFT
Ms type: MS2
Ion mode: POSITIVE
Ionization: ESI
Fragmentation mode: HCD
Collision energy: 120 % (nominal)
Resolution: 17500
Column name: XBridge C18 3.5um, 2.1x50mm, Waters
Retention time: 18.463 min
Base peak: 784.5259
Precursor m/z: 784.5259
Precursor type: [M+H]+
m/z	relative intensity	assigned
91.0542	999	C7H7+
93.0699	134	C7H9+
95.0492	231	C6H7O+
103.0544	138	C8H7+
105.0447	78	C6H5N2+
105.0699	551	C8H9+
107.0858	58	C8H11+
115.0542	253	C9H7+
116.0622	53	C9H8+
117.0699	238	C9H9+
119.0855	218	C9H11+
121.1015	50	C9H13+
128.0621	194	C10H8+
129.0699	166	C10H9+
130.0779	81	C10H10+
131.0855	133	C10H11+
133.1009	93	C10H13+
141.0699	56	C11H9+
145.0648	72	C10H9O+
145.101	169	C11H13+
147.0806	51	C10H11O+
155.086	56	C12H11+
173.0963	52	C12H13O+
202.0778	590	C16H10+
