Mass spectrum: IPPD-Q; LC-ESI-QFT; MS2; CE: 45%; R=17500; [M+H]+
Name: IPPD-Q
Name: 2-anilino-5-(propan-2-ylamino)cyclohexa-2,5-diene-1,4-dione
Formula: C15H16N2O2
Exact mass: 256.1211778
SMILES: CC(C)NC1=CC(=O)C(=CC1=O)NC2=CC=CC=C2
InChI: InChI=1S/C15H16N2O2/c1-10(2)16-12-8-15(19)13(9-14(12)18)17-11-6-4-3-5-7-11/h3-10,16-17H,1-2H3
Instrument: Exploris 240 Orbitrap Thermo Scientific
Instrument type: LC-ESI-QFT
Ms type: MS2
Ion mode: POSITIVE
Ionization: ESI
Fragmentation mode: HCD
Collision energy: 45 % (nominal)
Resolution: 17500
Column name: XBridge C18 3.5um, 2.1x50mm, Waters
Retention time: 7.927 min
Base peak: 257.1283
Precursor m/z: 257.1285
Precursor type: [M+H]+
m/z	relative intensity	assigned
58.0651	106	C3H8N+
94.0652	28	C6H8N+
123.0437	17	C7H7O2+
146.06	8	C9H8NO+
154.0648	12	C11H8N+
164.0705	37	C9H10NO2+
170.0598	67	C11H8NO+
172.0757	39	C11H10NO+
182.0598	8	C12H8NO+
187.0866	417	C11H11N2O+
198.0548	45	C12H8NO2+
200.0706	100	C12H10NO2+
201.0783	36	C12H11NO2+
214.0739	15	C12H10N2O2+
215.0815	999	C12H11N2O2+
216.0887	30	C12H12N2O2+
229.1335	18	C14H17N2O+
257.1286	424	C15H17N2O2+
