Mass spectrum: Ellagic Acid; LC-ESI-QFT; MS2; CE: 75%; R=17500; [M+H]+
Name: Ellagic Acid
Name: 6,7,13,14-tetrahydroxy-2,9-dioxatetracyclo[6.6.2.04,16.011,15]hexadeca-1(15),4,6,8(16),11,13-hexaene-3,10-dione
Formula: C14H6O8
Exact mass: 302.0062672
SMILES: C1=C2C3=C(C(=C1O)O)OC(=O)C4=CC(=C(C(=C43)OC2=O)O)O
InChI: InChI=1S/C14H6O8/c15-5-1-3-7-8-4(14(20)22-11(7)9(5)17)2-6(16)10(18)12(8)21-13(3)19/h1-2,15-18H
Instrument: Exploris 240 Orbitrap Thermo Scientific
Instrument type: LC-ESI-QFT
Ms type: MS2
Ion mode: POSITIVE
Ionization: ESI
Fragmentation mode: HCD
Collision energy: 75 % (nominal)
Resolution: 17500
Column name: XBridge C18 3.5um, 2.1x50mm, Waters
Retention time: 4.941 min
Base peak: 132.9582
Precursor m/z: 303.0135
Precursor type: [M+H]+
m/z	relative intensity	assigned
65.0385	10	C5H5+
89.0388	74	C7H5+
91.0543	88	C7H7+
101.0387	29	C8H5+
107.0496	16	C7H7O+
117.0334	151	C8H5O+
119.0493	37	C8H7O+
129.0334	59	C9H5O+
135.044	22	C8H7O2+
145.0283	299	C9H5O2+
147.0439	124	C9H7O2+
157.0284	134	C10H5O2+
163.0393	103	C9H7O3+
173.0233	510	C10H5O3+
175.0388	83	C10H7O3+
183.0075	117	C11H3O3+
185.0234	73	C11H5O3+
191.0339	144	C10H7O4+
201.0182	999	C11H5O4+
203.0339	90	C11H7O4+
211.0033	38	C12H3O4+
213.0181	87	C12H5O4+
219.029	86	C11H7O5+
229.0132	624	C12H5O5+
231.0285	87	C12H7O5+
241.0134	30	C13H5O5+
247.0236	393	C12H7O6+
257.0082	635	C13H5O6+
275.0187	172	C13H7O7+
285.0023	63	C14H5O7+
286.0098	20	C14H6O7+
303.0142	28	C14H7O8+
