Mass spectrum: UV9; LC-ESI-QFT; MS2; CE: 75%; R=17500; [M+H]+
Name: UV9
Name: 2-(benzotriazol-2-yl)-4-methyl-6-prop-2-enylphenol
Formula: C16H15N3O
Exact mass: 265.1215121
SMILES: CC1=CC(=C(C(=C1)N2N=C3C=CC=CC3=N2)O)CC=C
InChI: InChI=1S/C16H15N3O/c1-3-6-12-9-11(2)10-15(16(12)20)19-17-13-7-4-5-8-14(13)18-19/h3-5,7-10,20H,1,6H2,2H3
Instrument: Exploris 240 Orbitrap Thermo Scientific
Instrument type: LC-ESI-QFT
Ms type: MS2
Ion mode: POSITIVE
Ionization: ESI
Fragmentation mode: HCD
Collision energy: 75 % (nominal)
Resolution: 17500
Column name: XBridge C18 3.5um, 2.1x50mm, Waters
Retention time: 16.910 min
Base peak: 266.1289
Precursor m/z: 266.1288
Precursor type: [M+H]+
m/z	relative intensity	assigned
53.0387	20	C4H5+
65.0385	242	C5H5+
77.0387	15	C6H5+
78.0465	13	C6H6+
79.0542	113	C6H7+
91.0542	999	C7H7+
92.0494	203	C6H6N+
93.0575	13	C6H7N+
93.0698	57	C7H9+
95.0493	12	C6H7O+
103.0542	115	C8H7+
104.062	86	C8H8+
105.0447	30	C6H5N2+
105.0697	42	C8H9+
107.0491	25	C7H7O+
115.0541	132	C9H7+
117.0698	470	C9H9+
119.0855	693	C9H11+
120.0556	98	C6H6N3+
128.0621	32	C10H8+
129.07	51	C10H9+
131.0494	12	C9H7O+
132.0572	38	C9H8O+
133.0648	61	C9H9O+
147.0809	37	C10H11O+
154.0647	15	C11H8N+
160.0758	53	C10H10NO+
161.0836	88	C10H11NO+
167.0729	114	C12H9N+
168.0811	36	C12H10N+
180.0814	57	C13H10N+
194.0962	25	C14H12N+
196.0762	23	C13H10NO+
225.0898	22	C13H11N3O+
235.0863	16	C15H11N2O+
238.0979	95	C14H12N3O+
