Mass spectrum: 2-(3,4-Dihydroxyphenyl)Chroman-3,5,7-Triol; LC-ESI-QFT; MS2; CE: 120%; R=17500; [M-H]-
Name: 2-(3,4-Dihydroxyphenyl)Chroman-3,5,7-Triol
Name: 2-(3,4-dihydroxyphenyl)-3,4-dihydro-2H-1-benzopyran-3,5,7-triol
Name: 2-(3,4-dihydroxyphenyl)-3,4-dihydro-2H-chromene-3,5,7-triol
Formula: C15H14O6
Exact mass: 290.079038168
SMILES: C1C(C(OC2=CC(=CC(=C21)O)O)C3=CC(=C(C=C3)O)O)O
InChI: InChI=1S/C15H14O6/c16-8-4-11(18)9-6-13(20)15(21-14(9)5-8)7-1-2-10(17)12(19)3-7/h1-5,13,15-20H,6H2
Instrument: Exploris 240 Orbitrap Thermo Scientific
Instrument type: LC-ESI-QFT
Ms type: MS2
Ion mode: NEGATIVE
Ionization: ESI
Fragmentation mode: HCD
Collision energy: 120 % (nominal)
Resolution: 17500
Column name: XBridge C18 3.5um, 2.1x50mm, Waters
Retention time: 2.883 min
Base peak: 289.0716
Precursor m/z: 289.0718
Precursor type: [M-H]-
m/z	relative intensity	assigned
55.019	186	C3H3O-
57.0345	645	C3H5O-
65.0395	101	C5H5-
67.019	124	C4H3O-
69.0346	456	C4H5O-
80.0269	85	C5H4O-
81.0345	176	C5H5O-
83.0139	360	C4H3O2-
91.0191	95	C6H3O-
93.0346	298	C6H5O-
95.0142	77	C5H3O2-
95.0501	236	C6H7O-
97.0296	187	C5H5O2-
105.035	91	C7H5O-
108.0216	602	C6H4O2-
109.0295	999	C6H5O2-
117.0345	103	C8H5O-
121.0296	160	C7H5O2-
122.0375	317	C7H6O2-
123.0452	332	C7H7O2-
135.0455	79	C8H7O2-
137.0245	115	C7H5O3-
159.0454	132	C10H7O2-
