Mass spectrum: 2-(3,4-Dihydroxyphenyl)Chroman-3,5,7-Triol; LC-ESI-QFT; MS2; CE: 90%; R=17500; [M-H]-
Name: 2-(3,4-Dihydroxyphenyl)Chroman-3,5,7-Triol
Name: 2-(3,4-dihydroxyphenyl)-3,4-dihydro-2H-1-benzopyran-3,5,7-triol
Name: 2-(3,4-dihydroxyphenyl)-3,4-dihydro-2H-chromene-3,5,7-triol
Formula: C15H14O6
Exact mass: 290.079038168
SMILES: C1C(C(OC2=CC(=CC(=C21)O)O)C3=CC(=C(C=C3)O)O)O
InChI: InChI=1S/C15H14O6/c16-8-4-11(18)9-6-13(20)15(21-14(9)5-8)7-1-2-10(17)12(19)3-7/h1-5,13,15-20H,6H2
Instrument: Exploris 240 Orbitrap Thermo Scientific
Instrument type: LC-ESI-QFT
Ms type: MS2
Ion mode: NEGATIVE
Ionization: ESI
Fragmentation mode: HCD
Collision energy: 90 % (nominal)
Resolution: 17500
Column name: XBridge C18 3.5um, 2.1x50mm, Waters
Retention time: 2.883 min
Base peak: 289.0716
Precursor m/z: 289.0718
Precursor type: [M-H]-
m/z	relative intensity	assigned
55.0189	50	C3H3O-
57.0345	367	C3H5O-
65.0396	30	C5H5-
69.0346	202	C4H5O-
77.0397	34	C6H5-
80.0267	52	C5H4O-
81.0346	193	C5H5O-
83.0138	248	C4H3O2-
93.0345	216	C6H5O-
95.0139	68	C5H3O2-
95.0501	186	C6H7O-
97.0294	233	C5H5O2-
105.0347	61	C7H5O-
108.0214	147	C6H4O2-
109.0294	999	C6H5O2-
117.0348	79	C8H5O-
121.0295	154	C7H5O2-
122.0372	254	C7H6O2-
123.0451	656	C7H7O2-
125.0242	105	C6H5O3-
133.0296	35	C8H5O2-
135.045	78	C8H7O2-
137.0243	163	C7H5O3-
139.0402	69	C7H7O3-
146.0374	56	C9H6O2-
149.0248	39	C8H5O3-
150.0322	61	C8H6O3-
151.04	37	C8H7O3-
159.045	140	C10H7O2-
161.061	29	C10H9O2-
162.0324	32	C9H6O3-
164.0116	35	C8H4O4-
173.0608	63	C11H9O2-
187.0404	39	C11H7O3-
