Mass spectrum: Silibinin; LC-ESI-QFT; MS2; CE: 180%; R=17500; [M+H]+
Name: Silibinin
Name: Silymarin
Name: 3,5,7-trihydroxy-2-[3-(4-hydroxy-3-methoxyphenyl)-2-(hydroxymethyl)-2,3-dihydro-1,4-benzodioxin-6-yl]-2,3-dihydrochromen-4-one
Formula: C25H22O10
Exact mass: 482.1212969
SMILES: COC1=C(C=CC(=C1)C2C(OC3=C(O2)C=C(C=C3)C4C(C(=O)C5=C(C=C(C=C5O4)O)O)O)CO)O
InChI: InChI=1S/C25H22O10/c1-32-17-6-11(2-4-14(17)28)24-20(10-26)33-16-5-3-12(7-18(16)34-24)25-23(31)22(30)21-15(29)8-13(27)9-19(21)35-25/h2-9,20,23-29,31H,10H2,1H3
Instrument: Exploris 240 Orbitrap Thermo Scientific
Instrument type: LC-ESI-QFT
Ms type: MS2
Ion mode: POSITIVE
Ionization: ESI
Fragmentation mode: HCD
Collision energy: 180 % (nominal)
Resolution: 17500
Column name: XBridge C18 3.5um, 2.1x50mm, Waters
Retention time: 6.153 min
Base peak: 483.1283
Precursor m/z: 483.1286
Precursor type: [M+H]+
m/z	relative intensity	assigned
52.0308	26	C4H4+
53.0022	55	C3HO+
53.0386	161	C4H5+
55.0179	80	C3H3O+
63.0229	456	C5H3+
65.0386	999	C5H5+
66.0463	165	C5H6+
68.9971	574	C3HO2+
75.023	94	C6H3+
76.0306	98	C6H4+
77.0385	457	C6H5+
78.0465	142	C6H6+
79.0178	46	C5H3O+
79.0544	58	C6H7+
81.0335	113	C5H5O+
89.0386	482	C7H5+
90.0464	51	C7H6+
91.0542	321	C7H7+
94.0412	134	C6H6O+
95.0491	212	C6H7O+
102.0464	241	C8H6+
115.054	237	C9H7+
118.0414	37	C8H6O+
126.0463	44	C10H6+
127.0544	24	C10H7+
128.0624	112	C10H8+
139.0544	108	C11H7+
152.0619	70	C12H8+
163.0543	26	C13H7+
165.0703	43	C13H9+
