Mass spectrum: THBP; LC-ESI-QFT; MS2; CE: 75%; R=17500; [M-H]-
Name: THBP
Name: 2,4,5-Trihydroxybutyrophenone
Name: 1-(2,4,5-trihydroxyphenyl)butan-1-one
Formula: C10H12O4
Exact mass: 196.0736
SMILES: CCCC(=O)C1=CC(=C(C=C1O)O)O
InChI: InChI=1S/C10H12O4/c1-2-3-7(11)6-4-9(13)10(14)5-8(6)12/h4-5,12-14H,2-3H2,1H3
Instrument: Exploris 240 Orbitrap Thermo Scientific
Instrument type: LC-ESI-QFT
Ms type: MS2
Ion mode: NEGATIVE
Ionization: ESI
Fragmentation mode: HCD
Collision energy: 75 % (nominal)
Resolution: 17500
Column name: XBridge C18 3.5um, 2.1x50mm, Waters
Retention time: 5.513 min
Base peak: 195.0661
Precursor m/z: 195.0663
Precursor type: [M-H]-
m/z	relative intensity	assigned
69.0345	209	C4H5O-
81.0347	97	C5H5O-
83.0139	79	C4H3O2-
95.0138	489	C5H3O2-
97.0294	177	C5H5O2-
97.0658	129	C6H9O-
107.0138	474	C6H3O2-
123.0088	360	C6H3O3-
124.0166	907	C6H4O3-
125.0244	999	C6H5O3-
151.0037	555	C7H3O4-
152.0115	302	C7H4O4-
166.0271	495	C8H6O4-
195.0664	269	C10H11O4-
