Mass spectrum: 2`-Deoxyguanosine; LC-ESI-QFT; MS2; CE: 120%; R=17500; [M-H]-
Name: 2`-Deoxyguanosine
Name: CID 638
Name: 2-amino-9-[4-hydroxy-5-(hydroxymethyl)oxolan-2-yl]-3H-purin-6-one
Formula: C10H13N5O4
Exact mass: 267.096753896
SMILES: C1C(C(OC1N2C=NC3=C2N=C(NC3=O)N)CO)O
InChI: InChI=1S/C10H13N5O4/c11-10-13-8-7(9(18)14-10)12-3-15(8)6-1-4(17)5(2-16)19-6/h3-6,16-17H,1-2H2,(H3,11,13,14,18)
Instrument: Exploris 240 Orbitrap Thermo Scientific
Instrument type: LC-ESI-QFT
Ms type: MS2
Ion mode: NEGATIVE
Ionization: ESI
Fragmentation mode: HCD
Collision energy: 120 % (nominal)
Resolution: 17500
Column name: XBridge C18 3.5um, 2.1x50mm, Waters
Retention time: 1.683 min
Base peak: 266.0894
Precursor m/z: 266.0895
Precursor type: [M-H]-
m/z	relative intensity	assigned
59.0139	55	C2H3O2-
65.0146	61	C3HN2-
65.9986	270	C3NO-
66.0098	999	C2N3-
78.0099	72	C3N3-
80.0253	110	C3H2N3-
82.0413	50	C3H4N3-
90.0099	58	C4N3-
92.0257	51	C4H2N3-
106.0284	119	C4H2N4-
107.0362	66	C4H3N4-
108.0203	490	C4H2N3O-
126.0308	32	C4H4N3O2-
133.0155	402	C5HN4O-
134.0361	20	C6H4N3O-
