Mass spectrum: DPA; LC-ESI-QFT; MS2; CE: 30%; R=17500; [M+H]+
Name: DPA
Name: Diphenylamine
Name: N-phenylaniline
Formula: C12H11N
Exact mass: 169.0891
SMILES: C1=CC=C(C=C1)NC2=CC=CC=C2
InChI: InChI=1S/C12H11N/c1-3-7-11(8-4-1)13-12-9-5-2-6-10-12/h1-10,13H
Instrument: Exploris 240 Orbitrap Thermo Scientific
Instrument type: LC-ESI-QFT
Ms type: MS2
Ion mode: POSITIVE
Ionization: ESI
Fragmentation mode: HCD
Collision energy: 30 % (nominal)
Resolution: 17500
Column name: XBridge C18 3.5um, 2.1x50mm, Waters
Retention time: 9.427 min
Base peak: 170.096
Precursor m/z: 170.0964
Precursor type: [M+H]+
m/z	relative intensity	assigned
170.0962	999	C12H12N+
