Mass spectrum: 2-(3,4-Dihydroxyphenyl)Chroman-3,5,7-Triol; LC-ESI-QFT; MS2; CE: 75%; R=17500; [M+H]+
Name: 2-(3,4-Dihydroxyphenyl)Chroman-3,5,7-Triol
Name: 2-(3,4-dihydroxyphenyl)-3,4-dihydro-2H-1-benzopyran-3,5,7-triol
Name: 2-(3,4-dihydroxyphenyl)-3,4-dihydro-2H-chromene-3,5,7-triol
Formula: C15H14O6
Exact mass: 290.0790382
SMILES: C1C(C(OC2=CC(=CC(=C21)O)O)C3=CC(=C(C=C3)O)O)O
InChI: InChI=1S/C15H14O6/c16-8-4-11(18)9-6-13(20)15(21-14(9)5-8)7-1-2-10(17)12(19)3-7/h1-5,13,15-20H,6H2
Instrument: Exploris 240 Orbitrap Thermo Scientific
Instrument type: LC-ESI-QFT
Ms type: MS2
Ion mode: POSITIVE
Ionization: ESI
Fragmentation mode: HCD
Collision energy: 75 % (nominal)
Resolution: 17500
Column name: XBridge C18 3.5um, 2.1x50mm, Waters
Retention time: 2.894 min
Base peak: 291.0862
Precursor m/z: 291.0863
Precursor type: [M+H]+
m/z	relative intensity	assigned
53.0384	19	C4H5+
55.0178	85	C3H3O+
55.0541	6	C4H7+
65.0386	56	C5H5+
67.0178	18	C4H3O+
67.0543	61	C5H7+
68.9971	89	C3HO2+
69.0335	18	C4H5O+
77.0386	24	C6H5+
83.049	32	C5H7O+
85.0281	9	C4H5O2+
91.0543	69	C7H7+
93.0334	65	C6H5O+
95.049	62	C6H7O+
97.0285	19	C5H5O2+
105.0334	26	C7H5O+
105.07	24	C8H9+
107.0492	21	C7H7O+
111.0442	108	C6H7O2+
115.0541	65	C9H7+
119.0491	157	C8H7O+
121.0283	15	C7H5O2+
123.044	999	C7H7O2+
127.0392	14	C6H7O3+
131.0494	21	C9H7O+
133.0282	7	C8H5O2+
133.0649	37	C9H9O+
137.0232	37	C7H5O3+
137.0599	13	C8H9O2+
139.039	755	C7H7O3+
143.0492	79	C10H7O+
147.0441	265	C9H7O2+
161.0598	94	C10H9O2+
163.0387	14	C9H7O3+
165.0549	19	C9H9O3+
179.0704	7	C10H11O3+
189.0543	20	C11H9O3+
