Mass spectrum: AO1135; LC-ESI-QFT; MS2; CE: 45%; R=17500; [M+H]+
Name: AO1135
Name: Octyl-3,5-di-tert-butyl-4-hydroxy-hydrocinnamate
Name: octyl 3-(3,5-ditert-butyl-4-hydroxyphenyl)propanoate
Formula: C25H42O3
Exact mass: 390.3134
SMILES: CCCCCCCCOC(=O)CCC1=CC(=C(C(=C1)C(C)(C)C)O)C(C)(C)C
InChI: InChI=1S/C25H42O3/c1-8-9-10-11-12-13-16-28-22(26)15-14-19-17-20(24(2,3)4)23(27)21(18-19)25(5,6)7/h17-18,27H,8-16H2,1-7H3
Instrument: Exploris 240 Orbitrap Thermo Scientific
Instrument type: LC-ESI-QFT
Ms type: MS2
Ion mode: POSITIVE
Ionization: ESI
Fragmentation mode: HCD
Collision energy: 45 % (nominal)
Resolution: 17500
Column name: XBridge C18 3.5um, 2.1x50mm, Waters
Retention time: 17.603 min
Base peak: 335.258
Precursor m/z: 391.3207
Precursor type: [M+H]+
m/z	relative intensity	assigned
57.0699	261	C4H9+
71.0855	132	C5H11+
107.0491	999	C7H7O+
149.0597	158	C9H9O2+
202.0776	180	C16H10+
