Mass spectrum: 2-(3,4-Dihydroxyphenyl)Chroman-3,5,7-Triol; LC-ESI-QFT; MS2; CE: 45%; R=17500; [M-H]-
Name: 2-(3,4-Dihydroxyphenyl)Chroman-3,5,7-Triol
Name: 2-(3,4-dihydroxyphenyl)-3,4-dihydro-2H-1-benzopyran-3,5,7-triol
Name: 2-(3,4-dihydroxyphenyl)-3,4-dihydro-2H-chromene-3,5,7-triol
Formula: C15H14O6
Exact mass: 290.079038168
SMILES: C1C(C(OC2=CC(=CC(=C21)O)O)C3=CC(=C(C=C3)O)O)O
InChI: InChI=1S/C15H14O6/c16-8-4-11(18)9-6-13(20)15(21-14(9)5-8)7-1-2-10(17)12(19)3-7/h1-5,13,15-20H,6H2
Instrument: Exploris 240 Orbitrap Thermo Scientific
Instrument type: LC-ESI-QFT
Ms type: MS2
Ion mode: NEGATIVE
Ionization: ESI
Fragmentation mode: HCD
Collision energy: 45 % (nominal)
Resolution: 17500
Column name: XBridge C18 3.5um, 2.1x50mm, Waters
Retention time: 2.883 min
Base peak: 289.0716
Precursor m/z: 289.0718
Precursor type: [M-H]-
m/z	relative intensity	assigned
57.0348	66	C3H5O-
81.0345	138	C5H5O-
83.014	92	C4H3O2-
93.0345	27	C6H5O-
95.0502	182	C6H7O-
97.0294	243	C5H5O2-
109.0294	999	C6H5O2-
121.0296	134	C7H5O2-
122.0375	33	C7H6O2-
123.0451	558	C7H7O2-
125.0244	769	C6H5O3-
135.0447	74	C8H7O2-
137.0244	322	C7H5O3-
138.0326	22	C7H6O3-
139.04	134	C7H7O3-
145.0299	43	C9H5O2-
146.037	45	C9H6O2-
149.0243	231	C8H5O3-
150.0322	43	C8H6O3-
151.04	518	C8H7O3-
159.0454	81	C10H7O2-
160.0527	72	C10H8O2-
161.0249	51	C9H5O3-
161.0605	186	C10H9O2-
163.04	69	C9H7O3-
164.0116	111	C8H4O4-
165.0193	160	C8H5O4-
167.0346	82	C8H7O4-
173.0604	37	C11H9O2-
174.0328	26	C10H6O3-
175.0406	89	C10H7O3-
175.0768	72	C11H11O2-
177.056	38	C10H9O3-
179.0349	173	C9H7O4-
185.0615	42	C12H9O2-
187.0401	199	C11H7O3-
188.0477	212	C11H8O3-
201.0562	26	C12H9O3-
202.0631	128	C12H10O3-
203.0713	665	C12H11O3-
205.0506	329	C11H9O4-
212.0478	35	C13H8O3-
217.0873	33	C13H13O3-
221.0817	351	C12H13O4-
227.0712	85	C14H11O3-
230.0586	45	C13H10O4-
245.0819	363	C14H13O4-
247.0618	61	C13H11O5-
271.0613	25	C15H11O5-
289.0728	126	C15H13O6-
