Mass spectrum: 3',4,4',5,7-Pentahydroxyflavan; LC-ESI-QFT; MS2; CE: 30%; R=17500; [M+H]+
Name: 3',4,4',5,7-Pentahydroxyflavan
Name: 2-(3,4-dihydroxyphenyl)-3,4-dihydro-2H-chromene-4,5,7-triol
Formula: C15H14O6
Exact mass: 290.0790382
SMILES: C1C(C2=C(C=C(C=C2OC1C3=CC(=C(C=C3)O)O)O)O)O
InChI: InChI=1S/C15H14O6/c16-8-4-11(19)15-12(20)6-13(21-14(15)5-8)7-1-2-9(17)10(18)3-7/h1-5,12-13,16-20H,6H2
Instrument: Exploris 240 Orbitrap Thermo Scientific
Instrument type: LC-ESI-QFT
Ms type: MS2
Ion mode: POSITIVE
Ionization: ESI
Fragmentation mode: HCD
Collision energy: 30 % (nominal)
Resolution: 17500
Column name: XBridge C18 3.5um, 2.1x50mm, Waters
Retention time: 2.891 min
Base peak: 291.0861
Precursor m/z: 291.0863
Precursor type: [M+H]+
m/z	relative intensity	assigned
95.0488	8	C6H7O+
119.0491	7	C8H7O+
123.0439	420	C7H7O2+
127.0387	10	C6H7O3+
137.0593	3	C8H9O2+
139.0389	999	C7H7O3+
147.044	133	C9H7O2+
151.0384	24	C8H7O3+
153.0543	8	C8H9O3+
161.0596	12	C10H9O2+
163.039	23	C9H7O3+
165.0546	221	C9H9O3+
169.0493	24	C8H9O4+
179.071	16	C10H11O3+
181.0491	18	C9H9O4+
189.0548	8	C11H9O3+
205.0854	6	C12H13O3+
207.065	122	C11H11O4+
249.0755	28	C13H13O5+
273.0751	20	C15H13O5+
291.0859	52	C15H15O6+
