Mass spectrum: Taxifolin; LC-ESI-QFT; MS2; CE: 120%; R=17500; [M-H]-
Name: Taxifolin
Name: 3,5,7,3`,4`-Pentahydroxyflavanone
Name: 2-(3,4-dihydroxyphenyl)-3,5,7-trihydroxy-2,3-dihydrochromen-4-one
Formula: C15H12O7
Exact mass: 304.058302724
SMILES: C1=CC(=C(C=C1C2C(C(=O)C3=C(C=C(C=C3O2)O)O)O)O)O
InChI: InChI=1S/C15H12O7/c16-7-4-10(19)12-11(5-7)22-15(14(21)13(12)20)6-1-2-8(17)9(18)3-6/h1-5,14-19,21H
Instrument: Exploris 240 Orbitrap Thermo Scientific
Instrument type: LC-ESI-QFT
Ms type: MS2
Ion mode: NEGATIVE
Ionization: ESI
Fragmentation mode: HCD
Collision energy: 120 % (nominal)
Resolution: 17500
Column name: XBridge C18 3.5um, 2.1x50mm, Waters
Retention time: 4.371 min
Base peak: 303.0509
Precursor m/z: 303.051
Precursor type: [M-H]-
m/z	relative intensity	assigned
57.0346	999	C3H5O-
63.024	94	C5H3-
65.0033	321	C4HO-
67.0189	21	C4H3O-
68.9983	34	C3HO2-
81.0348	26	C5H5O-
82.0063	17	C4H2O2-
83.0139	144	C4H3O2-
93.0348	56	C6H5O-
95.0499	19	C6H7O-
96.0217	38	C5H4O2-
108.0218	23	C6H4O2-
109.0296	17	C6H5O2-
117.0349	23	C8H5O-
121.0297	27	C7H5O2-
122.0376	55	C7H6O2-
123.0452	59	C7H7O2-
125.0244	29	C6H5O3-
145.0298	37	C9H5O2-
150.0327	23	C8H6O3-
