Mass spectrum: IPPD-Q; LC-ESI-QFT; MS2; CE: 30%; R=17500; [M+H]+
Name: IPPD-Q
Name: 2-anilino-5-(propan-2-ylamino)cyclohexa-2,5-diene-1,4-dione
Formula: C15H16N2O2
Exact mass: 256.1211778
SMILES: CC(C)NC1=CC(=O)C(=CC1=O)NC2=CC=CC=C2
InChI: InChI=1S/C15H16N2O2/c1-10(2)16-12-8-15(19)13(9-14(12)18)17-11-6-4-3-5-7-11/h3-10,16-17H,1-2H3
Instrument: Exploris 240 Orbitrap Thermo Scientific
Instrument type: LC-ESI-QFT
Ms type: MS2
Ion mode: POSITIVE
Ionization: ESI
Fragmentation mode: HCD
Collision energy: 30 % (nominal)
Resolution: 17500
Column name: XBridge C18 3.5um, 2.1x50mm, Waters
Retention time: 7.927 min
Base peak: 257.1283
Precursor m/z: 257.1285
Precursor type: [M+H]+
m/z	relative intensity	assigned
58.0651	22	C3H8N+
164.0702	5	C9H10NO2+
187.0862	20	C11H11N2O+
198.0552	5	C12H8NO2+
200.0705	13	C12H10NO2+
215.0815	607	C12H11N2O2+
229.1334	12	C14H17N2O+
257.1286	999	C15H17N2O2+
