Mass spectrum: 77PPD; LC-ESI-QFT; MS2; CE: 120%; R=17500; [M+H]+
Name: 77PPD
Name: 1-N,4-N-bis(5-methylhexan-2-yl)benzene-1,4-diamine
Formula: C20H36N2
Exact mass: 304.2878492
SMILES: CC(C)CCC(C)NC1=CC=C(C=C1)NC(C)CCC(C)C
InChI: InChI=1S/C20H36N2/c1-15(2)7-9-17(5)21-19-11-13-20(14-12-19)22-18(6)10-8-16(3)4/h11-18,21-22H,7-10H2,1-6H3
Instrument: Exploris 240 Orbitrap Thermo Scientific
Instrument type: LC-ESI-QFT
Ms type: MS2
Ion mode: POSITIVE
Ionization: ESI
Fragmentation mode: HCD
Collision energy: 120 % (nominal)
Resolution: 17500
Column name: XBridge C18 3.5um, 2.1x50mm, Waters
Retention time: 12.642 min
Base peak: 132.9582
Precursor m/z: 305.2951
Precursor type: [M+H]+
m/z	relative intensity	assigned
55.0543	50	C4H7+
57.0699	28	C4H9+
65.0385	108	C5H5+
80.0496	57	C5H6N+
91.0541	132	C7H7+
92.0494	121	C6H6N+
93.0572	999	C6H7N+
94.0655	29	C6H8N+
106.0651	56	C7H8N+
107.0603	381	C6H7N2+
108.0679	109	C6H8N2+
108.0811	101	C7H10N+
117.0573	25	C8H7N+
118.0651	398	C8H8N+
119.073	33	C8H9N+
121.076	48	C7H9N2+
133.0758	74	C8H9N2+
134.0836	104	C8H10N2+
135.0916	456	C8H11N2+
