Mass spectrum: N-6-methyl-2-deoxyadenosine; LC-ESI-QFT; MS2; CE: 90%; R=17500; [M+H]+
Name: N-6-methyl-2-deoxyadenosine
Formula: C11H15N5O3
Exact mass: 265.1174894
SMILES: CNC1=C2C(=NC=N1)N(C=N2)C3CC(C(O3)CO)O
InChI: InChI=1S/C11H15N5O3/c1-12-10-9-11(14-4-13-10)16(5-15-9)8-2-6(18)7(3-17)19-8/h4-8,17-18H,2-3H2,1H3,(H,12,13,14)
Instrument: Exploris 240 Orbitrap Thermo Scientific
Instrument type: LC-ESI-QFT
Ms type: MS2
Ion mode: POSITIVE
Ionization: ESI
Fragmentation mode: HCD
Collision energy: 90 % (nominal)
Resolution: 17500
Column name: XBridge C18 3.5um, 2.1x50mm, Waters
Retention time: 2.046 min
Base peak: 266.1245
Precursor m/z: 266.1248
Precursor type: [M+H]+
m/z	relative intensity	assigned
53.0385	21	C4H5+
55.0291	10	C2H3N2+
57.0335	10	C3H5O+
57.0447	76	C2H5N2+
69.0335	45	C4H5O+
71.0491	32	C4H7O+
73.0283	88	C3H5O2+
81.0332	13	C5H5O+
81.0446	7	C4H5N2+
82.0398	21	C3H4N3+
94.04	181	C4H4N3+
96.0555	37	C4H6N3+
99.044	12	C5H7O2+
106.0399	34	C5H4N3+
108.0429	37	C4H4N4+
109.0507	23	C4H5N4+
119.0354	24	C5H3N4+
121.0506	13	C5H5N4+
123.0665	157	C5H7N4+
133.051	74	C6H5N4+
135.054	54	C5H5N5+
148.0612	26	C6H6N5+
150.0774	999	C6H8N5+
