Mass spectrum: Kaempferol; LC-ESI-QFT; MS2; CE: 45%; R=17500; [M-H]-
Name: Kaempferol
Name: 3,5,7-trihydroxy-2-(4-hydroxyphenyl)chromen-4-one
Formula: C15H10O6
Exact mass: 286.04773804
SMILES: C1=CC(=CC=C1C2=C(C(=O)C3=C(C=C(C=C3O2)O)O)O)O
InChI: InChI=1S/C15H10O6/c16-8-3-1-7(2-4-8)15-14(20)13(19)12-10(18)5-9(17)6-11(12)21-15/h1-6,16-18,20H
Instrument: Exploris 240 Orbitrap Thermo Scientific
Instrument type: LC-ESI-QFT
Ms type: MS2
Ion mode: NEGATIVE
Ionization: ESI
Fragmentation mode: HCD
Collision energy: 45 % (nominal)
Resolution: 17500
Column name: XBridge C18 3.5um, 2.1x50mm, Waters
Retention time: 6.967 min
Base peak: 285.0403
Precursor m/z: 285.0405
Precursor type: [M-H]-
m/z	relative intensity	assigned
83.0138	4	C4H3O2-
93.0344	5	C6H5O-
107.0138	6	C6H3O2-
143.0502	4	C10H7O-
151.0042	14	C7H3O4-
154.0421	6	C11H6O-
155.0503	5	C11H7O-
157.0656	3	C11H9O-
159.045	4	C10H7O2-
163.0038	5	C8H3O4-
164.0123	3	C8H4O4-
165.0189	4	C8H5O4-
169.0659	10	C12H9O-
171.0451	5	C11H7O2-
185.0606	16	C12H9O2-
187.04	6	C11H7O3-
189.0556	3	C11H9O3-
199.0406	2	C12H7O3-
211.0393	2	C13H7O3-
213.0557	13	C13H9O3-
214.0269	7	C12H6O4-
215.0349	5	C12H7O4-
229.0505	20	C13H9O4-
239.0348	11	C14H7O4-
243.0303	7	C13H7O5-
257.0452	12	C14H9O5-
285.0404	999	C15H9O6-
