Mass spectrum: Antioxidant 22; LC-ESI-QFT; MS2; CE: 150%; R=17500; [M+H]+
Name: Antioxidant 22
Name: 1-N,4-N-di(butan-2-yl)benzene-1,4-diamine
Formula: C14H24N2
Exact mass: 220.1939488
SMILES: CCC(C)NC1=CC=C(C=C1)NC(C)CC
InChI: InChI=1S/C14H24N2/c1-5-11(3)15-13-7-9-14(10-8-13)16-12(4)6-2/h7-12,15-16H,5-6H2,1-4H3
Instrument: Exploris 240 Orbitrap Thermo Scientific
Instrument type: LC-ESI-QFT
Ms type: MS2
Ion mode: POSITIVE
Ionization: ESI
Fragmentation mode: HCD
Collision energy: 150 % (nominal)
Resolution: 17500
Column name: XBridge C18 3.5um, 2.1x50mm, Waters
Retention time: 6.080 min
Base peak: 132.9582
Precursor m/z: 221.2012
Precursor type: [M+H]+
m/z	relative intensity	assigned
53.0385	24	C4H5+
63.023	8	C5H3+
65.0386	266	C5H5+
66.0465	52	C5H6+
80.0495	252	C5H6N+
81.0573	15	C5H7N+
91.0542	133	C7H7+
92.0495	95	C6H6N+
93.0573	999	C6H7N+
106.0651	91	C7H8N+
107.0604	445	C6H7N2+
108.0684	39	C6H8N2+
108.0805	28	C7H10N+
117.0571	47	C8H7N+
118.0651	160	C8H8N+
119.0604	20	C7H7N2+
119.0727	14	C8H9N+
120.0683	14	C7H8N2+
133.0761	74	C8H9N2+
134.0838	42	C8H10N2+
135.0917	68	C8H11N2+
