Mass spectrum: Hexadecyl gallate; LC-ESI-QFT; MS2; CE: 150%; R=17500; [M-H]-
Name: Hexadecyl gallate
Name: Cetyl gallate
Name: hexadecyl 3,4,5-trihydroxybenzoate
Formula: C23H38O5
Exact mass: 394.271924316
SMILES: CCCCCCCCCCCCCCCCOC(=O)C1=CC(=C(C(=C1)O)O)O
InChI: InChI=1S/C23H38O5/c1-2-3-4-5-6-7-8-9-10-11-12-13-14-15-16-28-23(27)19-17-20(24)22(26)21(25)18-19/h17-18,24-26H,2-16H2,1H3
Instrument: Exploris 240 Orbitrap Thermo Scientific
Instrument type: LC-ESI-QFT
Ms type: MS2
Ion mode: NEGATIVE
Ionization: ESI
Fragmentation mode: HCD
Collision energy: 150 % (nominal)
Resolution: 17500
Column name: XBridge C18 3.5um, 2.1x50mm, Waters
Retention time: 17.946 min
Base peak: 393.2644
Precursor m/z: 393.2646
Precursor type: [M-H]-
m/z	relative intensity	assigned
65.0034	138	C4HO-
78.0111	999	C5H2O-
79.019	61	C5H3O-
95.014	119	C5H3O2-
123.0091	72	C6H3O3-
124.0163	223	C6H4O3-
125.0247	54	C6H5O3-
