Mass spectrum: PANA; LC-ESI-QFT; MS2; CE: 150%; R=17500; [M+H]+
Name: PANA
Name: N-Phenyl-1-naphthylamine
Name: N-phenylnaphthalen-1-amine
Formula: C16H13N
Exact mass: 219.1048
SMILES: C1=CC=C(C=C1)NC2=CC=CC3=CC=CC=C32
InChI: InChI=1S/C16H13N/c1-2-9-14(10-3-1)17-16-12-6-8-13-7-4-5-11-15(13)16/h1-12,17H
Instrument: Exploris 240 Orbitrap Thermo Scientific
Instrument type: LC-ESI-QFT
Ms type: MS2
Ion mode: POSITIVE
Ionization: ESI
Fragmentation mode: HCD
Collision energy: 150 % (nominal)
Resolution: 17500
Column name: XBridge C18 3.5um, 2.1x50mm, Waters
Retention time: 11.889 min
Base peak: 220.1116
Precursor m/z: 220.1121
Precursor type: [M+H]+
m/z	relative intensity	assigned
65.0385	661	C5H5+
66.0463	67	C5H6+
78.0464	68	C6H6+
89.0386	70	C7H5+
93.0572	108	C6H7N+
102.0462	133	C8H6+
115.0541	999	C9H7+
116.0618	199	C9H8+
128.0619	302	C10H8+
143.0729	175	C10H9N+
202.0776	279	C16H10+
