Mass spectrum: 2-[3-(benzotriazol-2-yl)-4-hydroxyphenyl]ethyl 2-methylprop-2-enoate; LC-ESI-QFT; MS2; CE: 60%; R=17500; [M+H]+
Name: 2-[3-(benzotriazol-2-yl)-4-hydroxyphenyl]ethyl 2-methylprop-2-enoate
Formula: C18H17N3O3
Exact mass: 323.1269914
SMILES: CC(=C)C(=O)OCCC1=CC(=C(C=C1)O)N2N=C3C=CC=CC3=N2
InChI: InChI=1S/C18H17N3O3/c1-12(2)18(23)24-10-9-13-7-8-17(22)16(11-13)21-19-14-5-3-4-6-15(14)20-21/h3-8,11,22H,1,9-10H2,2H3
Instrument: Exploris 240 Orbitrap Thermo Scientific
Instrument type: LC-ESI-QFT
Ms type: MS2
Ion mode: POSITIVE
Ionization: ESI
Fragmentation mode: HCD
Collision energy: 60 % (nominal)
Resolution: 17500
Column name: XBridge C18 3.5um, 2.1x50mm, Waters
Retention time: 14.027 min
Base peak: 324.1341
Precursor m/z: 324.1343
Precursor type: [M+H]+
m/z	relative intensity	assigned
65.0387	30	C5H5+
91.0542	999	C7H7+
92.0494	31	C6H6N+
107.0604	6	C6H7N2+
117.0575	8	C8H7N+
119.0491	770	C8H7O+
120.0556	74	C6H6N3+
134.0596	10	C8H8NO+
165.0703	31	C13H9+
167.0729	110	C12H9N+
169.076	17	C11H9N2+
180.0804	20	C13H10N+
181.0887	6	C13H11N+
183.0683	13	C12H9NO+
191.0727	19	C14H9N+
193.0762	23	C13H9N2+
194.071	14	C12H8N3+
195.0795	10	C12H9N3+
209.0826	28	C14H11NO+
210.1026	10	C13H12N3+
223.0738	87	C13H9N3O+
238.0975	662	C14H12N3O+
