Mass spectrum: UV120; LC-ESI-QFT; MS2; CE: 75%; R=17500; [M+H]+
Name: UV120
Name: 2,4-Di-tert-butylphenyl 3',5'-di-tert-butyl-4'-hydroxybenzoate
Name: (2,4-ditert-butylphenyl) 3,5-ditert-butyl-4-hydroxybenzoate
Formula: C29H42O3
Exact mass: 438.3133952
SMILES: CC(C)(C)C1=CC(=C(C=C1)OC(=O)C2=CC(=C(C(=C2)C(C)(C)C)O)C(C)(C)C)C(C)(C)C
InChI: InChI=1S/C29H42O3/c1-26(2,3)19-13-14-23(20(17-19)27(4,5)6)32-25(31)18-15-21(28(7,8)9)24(30)22(16-18)29(10,11)12/h13-17,30H,1-12H3
Instrument: Exploris 240 Orbitrap Thermo Scientific
Instrument type: LC-ESI-QFT
Ms type: MS2
Ion mode: POSITIVE
Ionization: ESI
Fragmentation mode: HCD
Collision energy: 75 % (nominal)
Resolution: 17500
Column name: XBridge C18 3.5um, 2.1x50mm, Waters
Retention time: 18.102 min
Base peak: 439.3203
Precursor m/z: 439.3207
Precursor type: [M+H]+
m/z	relative intensity	assigned
55.0542	13	C4H7+
57.0699	116	C4H9+
69.0698	5	C5H9+
79.0543	4	C6H7+
91.054	25	C7H7+
93.0699	25	C7H9+
105.0698	29	C8H9+
107.0492	12	C7H7O+
107.0854	7	C8H11+
117.0698	16	C9H9+
119.0494	13	C8H7O+
119.0856	32	C9H11+
121.065	16	C8H9O+
121.1012	23	C9H13+
123.0803	21	C8H11O+
129.0696	8	C10H9+
130.0776	8	C10H10+
131.0858	11	C10H11+
133.1014	11	C10H13+
135.0804	12	C9H11O+
135.1172	4	C10H15+
147.0806	73	C10H11O+
149.0961	212	C10H13O+
159.0806	8	C11H11O+
161.0964	6	C11H13O+
163.1118	106	C11H15O+
174.1044	18	C12H14O+
175.1123	14	C12H15O+
177.1273	4	C12H17O+
201.0906	8	C13H13O2+
203.1062	7	C13H15O2+
217.1223	354	C14H17O2+
233.1538	999	C15H21O2+
