Mass spectrum: AO1024; LC-ESI-QFT; MS2; CE: 45%; R=17500; [M+H]+
Name: AO1024
Name: 1,2-Bis(3,5-di-tert-butyl-4-hydroxyhydrocinnamoyl)hydrazine
Name: 3-(3,5-ditert-butyl-4-hydroxyphenyl)-N'-[3-(3,5-ditert-butyl-4-hydroxyphenyl)propanoyl]propanehydrazide
Formula: C34H52N2O4
Exact mass: 552.3927081
SMILES: CC(C)(C)C1=CC(=CC(=C1O)C(C)(C)C)CCC(=O)NNC(=O)CCC2=CC(=C(C(=C2)C(C)(C)C)O)C(C)(C)C
InChI: InChI=1S/C34H52N2O4/c1-31(2,3)23-17-21(18-24(29(23)39)32(4,5)6)13-15-27(37)35-36-28(38)16-14-22-19-25(33(7,8)9)30(40)26(20-22)34(10,11)12/h17-20,39-40H,13-16H2,1-12H3,(H,35,37)(H,36,38)
Instrument: Exploris 240 Orbitrap Thermo Scientific
Instrument type: LC-ESI-QFT
Ms type: MS2
Ion mode: POSITIVE
Ionization: ESI
Fragmentation mode: HCD
Collision energy: 45 % (nominal)
Resolution: 17500
Column name: XBridge C18 3.5um, 2.1x50mm, Waters
Retention time: 15.091 min
Base peak: 570.4265
Precursor m/z: 553.4
Precursor type: [M+H]+
m/z	relative intensity	assigned
107.0492	80	C7H7O+
146.0601	4	C9H8NO+
149.0598	113	C9H9O2+
163.1119	125	C11H15O+
181.0972	999	C9H13N2O2+
203.1439	2	C14H19O+
205.1219	11	C13H17O2+
219.1745	240	C15H23O+
237.16	271	C13H21N2O2+
329.1507	5	C18H21N2O4+
