Mass spectrum: Naringenin; LC-ESI-QFT; MS2; CE: 150%; R=17500; [M+H]+
Name: Naringenin
Name: (+-)-Naringenin
Name: 5,7-dihydroxy-2-(4-hydroxyphenyl)-2,3-dihydrochromen-4-one
Formula: C15H12O5
Exact mass: 272.0684735
SMILES: C1C(OC2=CC(=CC(=C2C1=O)O)O)C3=CC=C(C=C3)O
InChI: InChI=1S/C15H12O5/c16-9-3-1-8(2-4-9)13-7-12(19)15-11(18)5-10(17)6-14(15)20-13/h1-6,13,16-18H,7H2
Instrument: Exploris 240 Orbitrap Thermo Scientific
Instrument type: LC-ESI-QFT
Ms type: MS2
Ion mode: POSITIVE
Ionization: ESI
Fragmentation mode: HCD
Collision energy: 150 % (nominal)
Resolution: 17500
Column name: XBridge C18 3.5um, 2.1x50mm, Waters
Retention time: 6.351 min
Base peak: 273.0755
Precursor m/z: 273.0757
Precursor type: [M+H]+
m/z	relative intensity	assigned
50.0153	22	C4H2+
51.023	141	C4H3+
53.0386	48	C4H5+
55.0179	101	C3H3O+
63.0231	29	C5H3+
65.0386	999	C5H5+
67.018	47	C4H3O+
68.9971	541	C3HO2+
69.0334	136	C4H5O+
75.0231	37	C6H3+
77.0385	144	C6H5+
79.0177	69	C5H3O+
89.0389	30	C7H5+
91.0543	505	C7H7+
95.0493	53	C6H7O+
115.0547	28	C9H7+
119.0496	28	C8H7O+
