Mass spectrum: Ellagic Acid; LC-ESI-QFT; MS2; CE: 120%; R=17500; [M-H]-
Name: Ellagic Acid
Name: 6,7,13,14-tetrahydroxy-2,9-dioxatetracyclo[6.6.2.04,16.011,15]hexadeca-1(15),4,6,8(16),11,13-hexaene-3,10-dione
Formula: C14H6O8
Exact mass: 302.006267152
SMILES: C1=C2C3=C(C(=C1O)O)OC(=O)C4=CC(=C(C(=C43)OC2=O)O)O
InChI: InChI=1S/C14H6O8/c15-5-1-3-7-8-4(14(20)22-11(7)9(5)17)2-6(16)10(18)12(8)21-13(3)19/h1-2,15-18H
Instrument: Exploris 240 Orbitrap Thermo Scientific
Instrument type: LC-ESI-QFT
Ms type: MS2
Ion mode: NEGATIVE
Ionization: ESI
Fragmentation mode: HCD
Collision energy: 120 % (nominal)
Resolution: 17500
Column name: XBridge C18 3.5um, 2.1x50mm, Waters
Retention time: 4.930 min
Base peak: 300.9989
Precursor m/z: 300.999
Precursor type: [M-H]-
m/z	relative intensity	assigned
63.0242	85	C5H3-
65.0033	730	C4HO-
73.0084	176	C6H-
75.0242	183	C6H3-
77.0397	338	C6H5-
87.0236	294	C7H3-
88.0318	113	C7H4-
89.0034	189	C6HO-
89.0396	850	C7H5-
91.0193	143	C6H3O-
99.024	277	C8H3-
101.0399	185	C8H5-
103.0193	156	C7H3O-
104.027	174	C7H4O-
105.0346	278	C7H5O-
115.0188	434	C8H3O-
116.0267	559	C8H4O-
117.0345	999	C8H5O-
119.0139	212	C7H3O2-
132.0214	682	C8H4O2-
133.0296	521	C8H5O2-
143.0137	312	C9H3O2-
144.0218	283	C9H4O2-
145.0296	506	C9H5O2-
156.022	193	C10H4O2-
160.0161	347	C9H4O3-
161.0242	244	C9H5O3-
172.0167	302	C10H4O3-
173.0242	59	C10H5O3-
199.004	100	C11H3O4-
200.0121	135	C11H4O4-
