Mass spectrum: 2'-Deoxyguanosine; LC-ESI-QFT; MS2; CE: 120%; R=17500; [M+H]+
Name: 2'-Deoxyguanosine
Name: CID 638
Name: 2-amino-9-[4-hydroxy-5-(hydroxymethyl)oxolan-2-yl]-3H-purin-6-one
Formula: C10H13N5O4
Exact mass: 267.0967539
SMILES: C1C(C(OC1N2C=NC3=C2N=C(NC3=O)N)CO)O
InChI: InChI=1S/C10H13N5O4/c11-10-13-8-7(9(18)14-10)12-3-15(8)6-1-4(17)5(2-16)19-6/h3-6,16-17H,1-2H2,(H3,11,13,14,18)
Instrument: Exploris 240 Orbitrap Thermo Scientific
Instrument type: LC-ESI-QFT
Ms type: MS2
Ion mode: POSITIVE
Ionization: ESI
Fragmentation mode: HCD
Collision energy: 120 % (nominal)
Resolution: 17500
Column name: XBridge C18 3.5um, 2.1x50mm, Waters
Retention time: 1.694 min
Base peak: 152.0566
Precursor m/z: 268.104
Precursor type: [M+H]+
m/z	relative intensity	assigned
53.0134	44	C2HN2+
53.0384	46	C4H5+
55.029	393	C2H3N2+
57.0333	11	C3H5O+
65.0134	32	C3HN2+
68.0131	21	C3H2NO+
69.0332	64	C4H5O+
71.049	10	C4H7O+
73.0283	64	C3H5O2+
80.0243	208	C3H2N3+
82.04	188	C3H4N3+
83.0242	16	C3H3N2O+
93.0083	114	C4HN2O+
107.0351	141	C4H3N4+
109.051	41	C4H5N4+
110.0348	681	C4H4N3O+
128.0452	55	C4H6N3O2+
134.0462	50	C5H4N5+
135.03	999	C5H3N4O+
152.0566	68	C5H6N5O+
153.0407	277	C5H5N4O2+
