Mass spectrum: Pyrogallol; LC-ESI-QFT; MS2; CE: 75%; R=17500; [M-H]-
Name: Pyrogallol
Name: benzene-1,2,3-triol
Formula: C6H6O3
Exact mass: 126.031694052
SMILES: C1=CC(=C(C(=C1)O)O)O
InChI: InChI=1S/C6H6O3/c7-4-2-1-3-5(8)6(4)9/h1-3,7-9H
Instrument: Exploris 240 Orbitrap Thermo Scientific
Instrument type: LC-ESI-QFT
Ms type: MS2
Ion mode: NEGATIVE
Ionization: ESI
Fragmentation mode: HCD
Collision energy: 75 % (nominal)
Resolution: 17500
Column name: XBridge C18 3.5um, 2.1x50mm, Waters
Retention time: 1.739 min
Base peak: 146.9387
Precursor m/z: 125.0244
Precursor type: [M-H]-
m/z	relative intensity	assigned
41.0033	43	C2HO-
51.024	75	C4H3-
69.0347	293	C4H5O-
79.0189	254	C5H3O-
81.0347	105	C5H5O-
95.0137	34	C5H3O2-
97.0295	207	C5H5O2-
124.0167	145	C6H4O3-
125.0245	999	C6H5O3-
