Mass spectrum: Gallic Acid; LC-ESI-QFT; MS2; CE: 90%; R=17500; [M-H]-
Name: Gallic Acid
Name: 3,4,5-trihydroxybenzoic acid
Formula: C7H6O5
Exact mass: 170.021523292
SMILES: C1=C(C=C(C(=C1O)O)O)C(=O)O
InChI: InChI=1S/C7H6O5/c8-4-1-3(7(11)12)2-5(9)6(4)10/h1-2,8-10H,(H,11,12)
Instrument: Exploris 240 Orbitrap Thermo Scientific
Instrument type: LC-ESI-QFT
Ms type: MS2
Ion mode: NEGATIVE
Ionization: ESI
Fragmentation mode: HCD
Collision energy: 90 % (nominal)
Resolution: 17500
Column name: XBridge C18 3.5um, 2.1x50mm, Waters
Retention time: 1.603 min
Base peak: 169.0142
Precursor m/z: 169.0142
Precursor type: [M-H]-
m/z	relative intensity	assigned
41.0033	106	C2HO-
43.019	41	C2H3O-
44.9983	53	CHO2-
51.024	367	C4H3-
53.0034	27	C3HO-
55.019	41	C3H3O-
67.0189	95	C4H3O-
69.0346	606	C4H5O-
79.0189	920	C5H3O-
81.0345	172	C5H5O-
83.0139	39	C4H3O2-
95.0139	67	C5H3O2-
97.0294	236	C5H5O2-
107.014	115	C6H3O2-
108.0218	46	C6H4O2-
123.0089	53	C6H3O3-
124.0167	408	C6H4O3-
125.0244	999	C6H5O3-
