Mass spectrum: Homoanatoxin-a; LC-ESI-QFT; MS2; CE: 90%; R=17500; [M+H]+
Name: Homoanatoxin-a
Name: 1-[(1R,6R)-9-azabicyclo[4.2.1]non-2-en-2-yl]propan-1-one
Formula: C11H17NO
Exact mass: 179.1310142
SMILES: CCC(=O)C1=CCC[C@@H]2CC[C@H]1N2
InChI: InChI=1S/C11H17NO/c1-2-11(13)9-5-3-4-8-6-7-10(9)12-8/h5,8,10,12H,2-4,6-7H2,1H3/t8-,10-/m1/s1
Instrument: Exploris 240 Orbitrap Thermo Scientific
Instrument type: LC-ESI-QFT
Ms type: MS2
Ion mode: POSITIVE
Ionization: ESI
Fragmentation mode: HCD
Collision energy: 90 % (nominal)
Resolution: 17500
Column name: XBridge C18 3.5um, 2.1x50mm, Waters
Retention time: 2.548 min
Base peak: 180.1381
Precursor m/z: 180.1383
Precursor type: [M+H]+
m/z	relative intensity	assigned
43.0178	33	C2H3O+
55.0543	41	C4H7+
56.0496	48	C3H6N+
57.0335	999	C3H5O+
59.0492	21	C3H7O+
67.0543	94	C5H7+
68.0494	37	C4H6N+
69.0699	17	C5H9+
70.0652	20	C4H8N+
77.0387	29	C6H5+
79.0542	161	C6H7+
80.0495	35	C5H6N+
81.0699	61	C6H9+
82.0653	45	C5H8N+
91.0543	220	C7H7+
93.0699	118	C7H9+
95.0491	24	C6H7O+
95.0857	20	C7H11+
105.0702	78	C8H9+
106.065	58	C7H8N+
108.081	20	C7H10N+
117.0699	101	C9H9+
130.0778	39	C10H10+
135.117	25	C10H15+
145.1012	45	C11H13+
