Mass spectrum: Ellagic Acid; LC-ESI-QFT; MS2; CE: 180%; R=17500; [M-H]-
Name: Ellagic Acid
Name: 6,7,13,14-tetrahydroxy-2,9-dioxatetracyclo[6.6.2.04,16.011,15]hexadeca-1(15),4,6,8(16),11,13-hexaene-3,10-dione
Formula: C14H6O8
Exact mass: 302.006267152
SMILES: C1=C2C3=C(C(=C1O)O)OC(=O)C4=CC(=C(C(=C43)OC2=O)O)O
InChI: InChI=1S/C14H6O8/c15-5-1-3-7-8-4(14(20)22-11(7)9(5)17)2-6(16)10(18)12(8)21-13(3)19/h1-2,15-18H
Instrument: Exploris 240 Orbitrap Thermo Scientific
Instrument type: LC-ESI-QFT
Ms type: MS2
Ion mode: NEGATIVE
Ionization: ESI
Fragmentation mode: HCD
Collision energy: 180 % (nominal)
Resolution: 17500
Column name: XBridge C18 3.5um, 2.1x50mm, Waters
Retention time: 4.930 min
Base peak: 300.9989
Precursor m/z: 300.999
Precursor type: [M-H]-
m/z	relative intensity	assigned
51.024	148	C4H3-
63.024	247	C5H3-
65.0033	999	C4HO-
73.0082	366	C6H-
75.0242	174	C6H3-
87.0241	157	C7H3-
89.0033	168	C6HO-
89.0398	176	C7H5-
91.0191	96	C6H3O-
115.0193	122	C8H3O-
