Mass spectrum: AO4703; LC-ESI-QFT; MS2; CE: 180%; R=17500; [M+H]+
Name: AO4703
Name: 2,6-ditert-butyl-4-[(dimethylamino)methyl]phenol
Formula: C17H29NO
Exact mass: 263.2249145
SMILES: CC(C)(C)C1=CC(=CC(=C1O)C(C)(C)C)CN(C)C
InChI: InChI=1S/C17H29NO/c1-16(2,3)13-9-12(11-18(7)8)10-14(15(13)19)17(4,5)6/h9-10,19H,11H2,1-8H3
Instrument: Exploris 240 Orbitrap Thermo Scientific
Instrument type: LC-ESI-QFT
Ms type: MS2
Ion mode: POSITIVE
Ionization: ESI
Fragmentation mode: HCD
Collision energy: 180 % (nominal)
Resolution: 17500
Column name: XBridge C18 3.5um, 2.1x50mm, Waters
Retention time: 7.272 min
Base peak: 264.232
Precursor m/z: 264.2322
Precursor type: [M+H]+
m/z	relative intensity	assigned
51.023	196	C4H3+
53.0386	203	C4H5+
55.0544	68	C4H7+
65.0386	514	C5H5+
67.0544	62	C5H7+
77.0386	503	C6H5+
78.0466	89	C6H6+
79.0543	310	C6H7+
91.0543	999	C7H7+
95.0492	176	C6H7O+
103.0541	194	C8H7+
104.062	34	C8H8+
105.0698	195	C8H9+
115.0543	502	C9H7+
116.0622	80	C9H8+
117.07	79	C9H9+
128.0623	372	C10H8+
129.0698	188	C10H9+
141.0704	43	C11H9+
