Mass spectrum: Kaempferol; LC-ESI-QFT; MS2; CE: 75%; R=17500; [M-H]-
Name: Kaempferol
Name: 3,5,7-trihydroxy-2-(4-hydroxyphenyl)chromen-4-one
Formula: C15H10O6
Exact mass: 286.04773804
SMILES: C1=CC(=CC=C1C2=C(C(=O)C3=C(C=C(C=C3O2)O)O)O)O
InChI: InChI=1S/C15H10O6/c16-8-3-1-7(2-4-8)15-14(20)13(19)12-10(18)5-9(17)6-11(12)21-15/h1-6,16-18,20H
Instrument: Exploris 240 Orbitrap Thermo Scientific
Instrument type: LC-ESI-QFT
Ms type: MS2
Ion mode: NEGATIVE
Ionization: ESI
Fragmentation mode: HCD
Collision energy: 75 % (nominal)
Resolution: 17500
Column name: XBridge C18 3.5um, 2.1x50mm, Waters
Retention time: 6.967 min
Base peak: 285.0403
Precursor m/z: 285.0405
Precursor type: [M-H]-
m/z	relative intensity	assigned
63.024	248	C5H3-
65.0033	299	C4HO-
65.0396	54	C5H5-
67.0189	130	C4H3O-
79.0192	68	C5H3O-
83.0138	196	C4H3O2-
91.019	123	C6H3O-
92.0268	96	C6H4O-
93.0345	999	C6H5O-
95.0137	164	C5H3O2-
107.0137	234	C6H3O2-
108.0215	403	C6H4O2-
109.0293	236	C6H5O2-
117.0346	475	C8H5O-
119.014	79	C7H3O2-
119.0502	74	C8H7O-
120.0216	53	C7H4O2-
121.0297	96	C7H5O2-
123.0456	80	C7H7O2-
130.0424	101	C9H6O-
131.0504	137	C9H7O-
133.0295	121	C8H5O2-
135.0089	164	C7H3O3-
136.0166	91	C7H4O3-
137.0246	121	C7H5O3-
143.0501	410	C10H7O-
145.0291	373	C9H5O2-
151.0043	101	C7H3O4-
154.0424	136	C11H6O-
155.051	153	C11H7O-
156.0584	163	C11H8O-
157.0297	131	C10H5O2-
157.0654	183	C11H9O-
158.037	177	C10H6O2-
159.0452	568	C10H7O2-
161.0247	228	C9H5O3-
161.0608	64	C10H9O2-
163.0037	108	C8H3O4-
164.0113	94	C8H4O4-
167.0503	180	C12H7O-
169.0661	103	C12H9O-
171.0451	262	C11H7O2-
173.0243	107	C10H5O3-
182.0377	67	C12H6O2-
183.045	241	C12H7O2-
184.0534	175	C12H8O2-
185.061	285	C12H9O2-
187.0398	393	C11H7O3-
195.0461	93	C13H7O2-
201.056	88	C12H9O3-
210.0318	83	C13H6O3-
211.0402	399	C13H7O3-
213.0563	54	C13H9O3-
214.0276	107	C12H6O4-
215.0346	72	C12H7O4-
227.0354	254	C13H7O4-
229.0517	165	C13H9O4-
239.0349	315	C14H7O4-
255.0309	178	C14H7O5-
267.0307	47	C15H7O5-
268.0367	50	C15H8O5-
285.0408	373	C15H9O6-
