Mass spectrum: Aureusidin; LC-ESI-QFT; MS2; CE: 150%; R=17500; [M+H]+
Name: Aureusidin
Name: 2-[(3,4-Dihydroxyphenyl)methylidene]-4,6-dihydroxy-3-benzofuranone
Name: 2-[(3,4-dihydroxyphenyl)methylidene]-4,6-dihydroxy-1-benzofuran-3-one
Formula: C15H10O6
Exact mass: 286.047738
SMILES: C1=CC(=C(C=C1C=C2C(=O)C3=C(C=C(C=C3O2)O)O)O)O
InChI: InChI=1S/C15H10O6/c16-8-5-11(19)14-12(6-8)21-13(15(14)20)4-7-1-2-9(17)10(18)3-7/h1-6,16-19H
Instrument: Exploris 240 Orbitrap Thermo Scientific
Instrument type: LC-ESI-QFT
Ms type: MS2
Ion mode: POSITIVE
Ionization: ESI
Fragmentation mode: HCD
Collision energy: 150 % (nominal)
Resolution: 17500
Column name: XBridge C18 3.5um, 2.1x50mm, Waters
Retention time: 5.270 min
Base peak: 287.0547
Precursor m/z: 287.055
Precursor type: [M+H]+
m/z	relative intensity	assigned
50.0151	70	C4H2+
51.0229	408	C4H3+
53.0022	24	C3HO+
53.0385	152	C4H5+
55.0178	112	C3H3O+
62.0152	51	C5H2+
63.0229	999	C5H3+
65.0386	209	C5H5+
67.0179	61	C4H3O+
68.9971	870	C3HO2+
69.0336	82	C4H5O+
75.023	44	C6H3+
77.0385	634	C6H5+
78.0462	33	C6H6+
79.0177	43	C5H3O+
79.0543	30	C6H7+
81.0335	61	C5H5O+
87.0228	45	C7H3+
89.0385	910	C7H5+
91.0181	40	C6H3O+
91.0542	79	C7H7+
95.049	154	C6H7O+
102.0465	58	C8H6+
103.0543	53	C8H7+
105.0336	70	C7H5O+
108.0203	24	C6H4O2+
113.0386	41	C9H5+
115.0542	229	C9H7+
126.047	24	C10H6+
127.0542	63	C10H7+
128.062	224	C10H8+
131.0493	26	C9H7O+
139.0542	168	C11H7+
