Mass spectrum: 3`,4,4`,5,7-Pentahydroxyflavan; LC-ESI-QFT; MS2; CE: 120%; R=17500; [M-H]-
Name: 3`,4,4`,5,7-Pentahydroxyflavan
Name: 2-(3,4-dihydroxyphenyl)-3,4-dihydro-2H-chromene-4,5,7-triol
Formula: C15H14O6
Exact mass: 290.079038168
SMILES: C1C(C2=C(C=C(C=C2OC1C3=CC(=C(C=C3)O)O)O)O)O
InChI: InChI=1S/C15H14O6/c16-8-4-11(19)15-12(20)6-13(21-14(15)5-8)7-1-2-9(17)10(18)3-7/h1-5,12-13,16-20H,6H2
Instrument: Exploris 240 Orbitrap Thermo Scientific
Instrument type: LC-ESI-QFT
Ms type: MS2
Ion mode: NEGATIVE
Ionization: ESI
Fragmentation mode: HCD
Collision energy: 120 % (nominal)
Resolution: 17500
Column name: XBridge C18 3.5um, 2.1x50mm, Waters
Retention time: 2.902 min
Base peak: 289.0717
Precursor m/z: 289.0718
Precursor type: [M-H]-
m/z	relative intensity	assigned
55.0189	166	C3H3O-
57.0345	633	C3H5O-
67.0189	97	C4H3O-
69.0345	422	C4H5O-
77.0397	52	C6H5-
80.0268	58	C5H4O-
81.0346	166	C5H5O-
83.0138	400	C4H3O2-
91.0192	51	C6H3O-
93.0346	314	C6H5O-
95.0137	89	C5H3O2-
95.0501	183	C6H7O-
97.0296	208	C5H5O2-
108.0216	545	C6H4O2-
109.0295	999	C6H5O2-
117.0348	128	C8H5O-
121.0295	124	C7H5O2-
122.0371	311	C7H6O2-
123.0453	228	C7H7O2-
135.0456	47	C8H7O2-
137.0242	80	C7H5O3-
145.0292	78	C9H5O2-
159.0454	144	C10H7O2-
