Mass spectrum: AO3114; LC-ESI-QFT; MS2; CE: 90%; R=17500; [M+H]+
Name: AO3114
Name: 1,3,5-Tris(3,5-di-tert-butyl-4-hydroxybenzyl)-1,3,5-triazinane-2,4,6-trione
Name: 1,3,5-tris[(3,5-ditert-butyl-4-hydroxyphenyl)methyl]-1,3,5-triazinane-2,4,6-trione
Formula: C48H69N3O6
Exact mass: 783.5186
SMILES: CC(C)(C)C1=CC(=CC(=C1O)C(C)(C)C)CN2C(=O)N(C(=O)N(C2=O)CC3=CC(=C(C(=C3)C(C)(C)C)O)C(C)(C)C)CC4=CC(=C(C(=C4)C(C)(C)C)O)C(C)(C)C
InChI: InChI=1S/C48H69N3O6/c1-43(2,3)31-19-28(20-32(37(31)52)44(4,5)6)25-49-40(55)50(26-29-21-33(45(7,8)9)38(53)34(22-29)46(10,11)12)42(57)51(41(49)56)27-30-23-35(47(13,14)15)39(54)36(24-30)48(16,17)18/h19-24,52-54H,25-27H2,1-18H3
Instrument: Exploris 240 Orbitrap Thermo Scientific
Instrument type: LC-ESI-QFT
Ms type: MS2
Ion mode: POSITIVE
Ionization: ESI
Fragmentation mode: HCD
Collision energy: 90 % (nominal)
Resolution: 17500
Column name: XBridge C18 3.5um, 2.1x50mm, Waters
Retention time: 18.463 min
Base peak: 784.5259
Precursor m/z: 784.5259
Precursor type: [M+H]+
m/z	relative intensity	assigned
91.0542	791	C7H7+
93.07	352	C7H9+
95.049	123	C6H7O+
103.0543	75	C8H7+
105.0698	904	C8H9+
107.0854	370	C8H11+
115.0546	82	C9H7+
117.0698	213	C9H9+
119.0855	999	C9H11+
121.1011	680	C9H13+
128.062	88	C10H8+
129.0696	141	C10H9+
131.0856	217	C10H11+
133.1011	842	C10H13+
145.0648	78	C10H9O+
145.101	437	C11H13+
147.0807	206	C10H11O+
147.1166	187	C11H15+
155.0857	124	C12H11+
161.0958	234	C11H13O+
161.1323	291	C12H17+
173.096	189	C12H13O+
175.1482	103	C13H19+
187.1111	191	C13H15O+
188.1192	122	C13H16O+
202.0778	965	C16H10+
203.143	805	C14H19O+
219.1748	238	C15H23O+
