Mass spectrum: Dioxybenzone; LC-ESI-QFT; MS2; CE: 180%; R=17500; [M+H]+
Name: Dioxybenzone
Name: 2,2'-Dihydroxy-4-methoxybenzophenone
Name: (2-hydroxy-4-methoxyphenyl)-(2-hydroxyphenyl)methanone
Formula: C14H12O4
Exact mass: 244.0735589
SMILES: COC1=CC(=C(C=C1)C(=O)C2=CC=CC=C2O)O
InChI: InChI=1S/C14H12O4/c1-18-9-6-7-11(13(16)8-9)14(17)10-4-2-3-5-12(10)15/h2-8,15-16H,1H3
Instrument: Exploris 240 Orbitrap Thermo Scientific
Instrument type: LC-ESI-QFT
Ms type: MS2
Ion mode: POSITIVE
Ionization: ESI
Fragmentation mode: HCD
Collision energy: 180 % (nominal)
Resolution: 17500
Column name: XBridge C18 3.5um, 2.1x50mm, Waters
Retention time: 8.791 min
Base peak: 245.0806
Precursor m/z: 245.0808
Precursor type: [M+H]+
m/z	relative intensity	assigned
50.0151	180	C4H2+
51.0229	153	C4H3+
52.0308	469	C4H4+
53.0022	75	C3HO+
55.0178	26	C3H3O+
63.023	50	C5H3+
65.0386	999	C5H5+
68.9972	117	C3HO2+
77.0384	27	C6H5+
79.018	25	C5H3O+
80.0259	41	C5H4O+
102.0468	34	C8H6+
108.0209	33	C6H4O2+
